Circuit: * C:\Users\morel\Desktop\Test\Test_PFC_BF.asc

WARNING: Less than two connections to node COMMANDE_COURANT.  This node is used by B:U9:1.
Direct Newton iteration for .op point succeeded.
Ignoring empty pin current: Ix(u1:1)
Ignoring empty pin current: Ix(u1:2)
Ignoring empty pin current: Ix(u2:1)
Ignoring empty pin current: Ix(u4:1)
Ignoring empty pin current: Ix(u4:2)
Ignoring empty pin current: Ix(u5:1)
Ignoring empty pin current: Ix(u7:1)
Ignoring empty pin current: Ix(u8:1)
Ignoring empty pin current: Ix(u8:2)
Ignoring empty pin current: Ix(u9:1)
Ignoring empty pin current: Ix(u11:1)
Ignoring empty pin current: Ix(u1:1)
Ignoring empty pin current: Ix(u1:2)
Ignoring empty pin current: Ix(u2:1)
Ignoring empty pin current: Ix(u4:1)
Ignoring empty pin current: Ix(u4:2)
Ignoring empty pin current: Ix(u5:1)
Ignoring empty pin current: Ix(u7:1)
Ignoring empty pin current: Ix(u8:1)
Ignoring empty pin current: Ix(u8:2)
Ignoring empty pin current: Ix(u9:1)
Ignoring empty pin current: Ix(u11:1)

Date: Sun Dec 17 20:07:02 2017
Total elapsed time: 62.006 seconds.

tnom = 27
temp = 27
method = modified trap
totiter = 4310447
traniter = 4310422
tranpoints = 991377
accept = 767960
rejected = 223417
matrix size = 71
fillins = 16
solver = Normal
Thread vector: 9.9/6.0[2] 1.7/1.5[2] 3.2/1.9[2] 0.4/0.8[1]  2592/500
Matrix Compiler1: 2.80 KB object code size  1.3/0.7/[0.5]
Matrix Compiler2: off  [0.5]/1.0/0.8

