Circuit: * C:\Users\morel\Desktop\Test\Test_MOV.asc

Direct Newton iteration for .op point succeeded.

Date: Wed Dec 06 22:43:18 2017
Total elapsed time: 33.695 seconds.

tnom = 27
temp = 27
method = modified trap
totiter = 2413258
traniter = 2413252
tranpoints = 1204325
accept = 1106953
rejected = 97372
matrix size = 23
fillins = 13
solver = Normal
Matrix Compiler1: 1.40 KB object code size  0.6/0.3/[0.2]
Matrix Compiler2: 1.74 KB object code size  0.2/0.4/[0.2]

