Circuit: * C:\Users\morel\Desktop\Test\Test_PFC.asc

Direct Newton iteration for .op point succeeded.
Ignoring empty pin current: Ix(u1:1)
Ignoring empty pin current: Ix(u1:2)
Ignoring empty pin current: Ix(u2:1)
Ignoring empty pin current: Ix(u1:1)
Ignoring empty pin current: Ix(u1:2)
Ignoring empty pin current: Ix(u2:1)
Heightened Def Con from 4.9999e-006 to 4.99991e-006
Heightened Def Con from 5.64414e-006 to 5.64428e-006
Heightened Def Con from 1.15696e-005 to 1.15698e-005
Heightened Def Con from 1.74951e-005 to 1.74953e-005
Heightened Def Con from 2.49994e-005 to 2.49995e-005
Heightened Def Con from 2.99994e-005 to 2.99995e-005
Heightened Def Con from 3.49994e-005 to 3.49995e-005
Heightened Def Con from 4.99994e-005 to 4.99995e-005
Heightened Def Con from 5.49994e-005 to 5.49995e-005
Heightened Def Con from 5.78863e-005 to 5.78865e-005
Heightened Def Con from 6.49994e-005 to 6.49995e-005
Heightened Def Con from 6.99994e-005 to 6.99995e-005
Heightened Def Con from 7.28863e-005 to 7.28865e-005
Heightened Def Con from 7.49994e-005 to 7.49995e-005
Heightened Def Con from 8.49994e-005 to 8.49995e-005
Heightened Def Con from 9.49994e-005 to 9.49995e-005
Heightened Def Con from 9.99994e-005 to 9.99995e-005
Heightened Def Con from 0.000104999 to 0.000105
Heightened Def Con from 0.000109999 to 0.00011
Heightened Def Con from 0.000112886 to 0.000112886
Heightened Def Con from 0.000114999 to 0.000115
Heightened Def Con from 0.000129999 to 0.00013
Heightened Def Con from 0.000132886 to 0.000132886
Heightened Def Con from 0.000134999 to 0.000135
Heightened Def Con from 0.000139999 to 0.00014
Heightened Def Con from 0.000142886 to 0.000142886
Heightened Def Con from 0.000149999 to 0.00015
Heightened Def Con from 0.000154999 to 0.000155
Heightened Def Con from 0.000157886 to 0.000157887
Heightened Def Con from 0.000159999 to 0.00016
Heightened Def Con from 0.000164999 to 0.000165
Heightened Def Con from 0.000169999 to 0.00017
Heightened Def Con from 0.000174999 to 0.000175
Heightened Def Con from 0.000179999 to 0.00018
Heightened Def Con from 0.000184999 to 0.000185
Heightened Def Con from 0.000187886 to 0.000187886
Heightened Def Con from 0.000189999 to 0.00019
Heightened Def Con from 0.000192886 to 0.000192886
Heightened Def Con from 0.000194999 to 0.000195
Heightened Def Con from 0.000197886 to 0.000197886
Heightened Def Con from 0.000199999 to 0.0002
Heightened Def Con from 0.000207886 to 0.000207886
Heightened Def Con from 0.000209999 to 0.00021
Heightened Def Con from 0.000219999 to 0.00022
Heightened Def Con from 0.000224999 to 0.000225
Heightened Def Con from 0.000229999 to 0.00023
Heightened Def Con from 0.000244999 to 0.000245
Heightened Def Con from 0.000249999 to 0.00025
Heightened Def Con from 0.000254999 to 0.000255
Heightened Def Con from 0.000259999 to 0.00026
Heightened Def Con from 0.000264999 to 0.000265
Heightened Def Con from 0.000272886 to 0.000272886
Heightened Def Con from 0.000274999 to 0.000275
Heightened Def Con from 0.000279999 to 0.00028
Heightened Def Con from 0.000284999 to 0.000285
Heightened Def Con from 0.000287886 to 0.000287886
Heightened Def Con from 0.000289999 to 0.00029
Heightened Def Con from 0.000299999 to 0.0003
Heightened Def Con from 0.000302886 to 0.000302886
Heightened Def Con from 0.000307886 to 0.00030789
Heightened Def Con from 0.000309999 to 0.00031
Heightened Def Con from 0.000312886 to 0.000312886
Heightened Def Con from 0.000314999 to 0.000315
Heightened Def Con from 0.000319999 to 0.00032
Heightened Def Con from 0.000324999 to 0.000325
Heightened Def Con from 0.000327886 to 0.000327886
Heightened Def Con from 0.000329999 to 0.00033
Heightened Def Con from 0.000332886 to 0.00033289
Heightened Def Con from 0.000334999 to 0.000335
Heightened Def Con from 0.000339999 to 0.00034
Heightened Def Con from 0.000344999 to 0.000345
Heightened Def Con from 0.000349999 to 0.00035
Heightened Def Con from 0.000364999 to 0.000365
Heightened Def Con from 0.000369999 to 0.00037
Heightened Def Con from 0.000379999 to 0.00038
Heightened Def Con from 0.000384999 to 0.000385
Heightened Def Con from 0.000389999 to 0.00039
Heightened Def Con from 0.000399999 to 0.0004
Heightened Def Con from 0.000402886 to 0.000402886
Heightened Def Con from 0.000404999 to 0.000405
Heightened Def Con from 0.000409999 to 0.00041
Heightened Def Con from 0.000412886 to 0.00041289
Heightened Def Con from 0.000414999 to 0.000415
Heightened Def Con from 0.000419999 to 0.00042
Heightened Def Con from 0.000424999 to 0.000425
Heightened Def Con from 0.000429999 to 0.00043
Heightened Def Con from 0.000434999 to 0.000435
Heightened Def Con from 0.000439999 to 0.00044
Heightened Def Con from 0.000444999 to 0.000445
Heightened Def Con from 0.000447886 to 0.000447886
Heightened Def Con from 0.000449999 to 0.00045
Heightened Def Con from 0.000452886 to 0.000452886
Heightened Def Con from 0.000454999 to 0.000455
Heightened Def Con from 0.000462886 to 0.000462886
Heightened Def Con from 0.000474999 to 0.000475
Heightened Def Con from 0.000477886 to 0.000477886
Heightened Def Con from 0.000482886 to 0.000482886
Heightened Def Con from 0.000489999 to 0.00049
Heightened Def Con from 0.000492886 to 0.000492886
Heightened Def Con from 0.000494999 to 0.000495
Heightened Def Con from 0.000499999 to 0.0005
Heightened Def Con from 0.000504999 to 0.000505
Heightened Def Con from 0.000509999 to 0.00051
Heightened Def Con from 0.000512886 to 0.000512886
Heightened Def Con from 0.000514999 to 0.000515
Heightened Def Con from 0.000519999 to 0.00052
Heightened Def Con from 0.000522886 to 0.000522886
Heightened Def Con from 0.000524999 to 0.000525
Heightened Def Con from 0.000529999 to 0.00053
Heightened Def Con from 0.000534999 to 0.000535
Heightened Def Con from 0.000537886 to 0.000537886
Heightened Def Con from 0.000539999 to 0.00054
Heightened Def Con from 0.000544999 to 0.000545
Heightened Def Con from 0.000549999 to 0.00055
Heightened Def Con from 0.000554999 to 0.000555
Heightened Def Con from 0.000559999 to 0.00056
Heightened Def Con from 0.000569999 to 0.00057
Heightened Def Con from 0.000574999 to 0.000575
Heightened Def Con from 0.000584999 to 0.000585
Heightened Def Con from 0.000592886 to 0.000592889
Heightened Def Con from 0.000594999 to 0.000595
Heightened Def Con from 0.000599999 to 0.0006
Heightened Def Con from 0.000604999 to 0.000605
Heightened Def Con from 0.000609999 to 0.00061
Heightened Def Con from 0.000614999 to 0.000615
Heightened Def Con from 0.000619999 to 0.00062
Heightened Def Con from 0.000622886 to 0.000622886
Heightened Def Con from 0.000624999 to 0.000625
Heightened Def Con from 0.000627886 to 0.000627886
Heightened Def Con from 0.000629999 to 0.00063
Heightened Def Con from 0.000634999 to 0.000635
Heightened Def Con from 0.000644999 to 0.000645
Heightened Def Con from 0.000647886 to 0.000647889
Heightened Def Con from 0.000649999 to 0.00065
Heightened Def Con from 0.000654999 to 0.000655
Heightened Def Con from 0.000659999 to 0.00066
Heightened Def Con from 0.000664999 to 0.000665
Heightened Def Con from 0.000669999 to 0.00067
Heightened Def Con from 0.000674999 to 0.000675
Heightened Def Con from 0.000679999 to 0.00068
Heightened Def Con from 0.000684999 to 0.000685
Heightened Def Con from 0.000687886 to 0.000687886
Heightened Def Con from 0.000689999 to 0.00069
Heightened Def Con from 0.000694999 to 0.000695
Heightened Def Con from 0.000699999 to 0.0007
Heightened Def Con from 0.000704999 to 0.000705
Heightened Def Con from 0.000709999 to 0.00071
Heightened Def Con from 0.000714999 to 0.000715
Heightened Def Con from 0.000719999 to 0.00072
Heightened Def Con from 0.000724999 to 0.000725
Heightened Def Con from 0.000729999 to 0.00073
Heightened Def Con from 0.000734999 to 0.000735
Heightened Def Con from 0.000739999 to 0.00074
Heightened Def Con from 0.000749999 to 0.00075
Heightened Def Con from 0.000752886 to 0.000752889
Heightened Def Con from 0.000759999 to 0.00076
Heightened Def Con from 0.000764999 to 0.000765
Heightened Def Con from 0.000769999 to 0.00077
Heightened Def Con from 0.000779999 to 0.00078
Heightened Def Con from 0.000782886 to 0.000782889
Heightened Def Con from 0.000784999 to 0.000785
Heightened Def Con from 0.000789999 to 0.00079
Heightened Def Con from 0.000804999 to 0.000805
Heightened Def Con from 0.000809999 to 0.00081
Heightened Def Con from 0.000814999 to 0.000815
Heightened Def Con from 0.000819999 to 0.00082
Heightened Def Con from 0.000824999 to 0.000825
Heightened Def Con from 0.000827886 to 0.000827886
Heightened Def Con from 0.000829999 to 0.00083
Heightened Def Con from 0.000834999 to 0.000835
Heightened Def Con from 0.000837886 to 0.000837886
Heightened Def Con from 0.000844999 to 0.000845
Heightened Def Con from 0.000849999 to 0.00085
Heightened Def Con from 0.000859999 to 0.00086
Heightened Def Con from 0.000864999 to 0.000865
Heightened Def Con from 0.000869999 to 0.00087
Heightened Def Con from 0.000874999 to 0.000875002
Heightened Def Con from 0.000879999 to 0.00088
Heightened Def Con from 0.000889999 to 0.00089
Heightened Def Con from 0.000894999 to 0.000895
Heightened Def Con from 0.000899999 to 0.0009
Heightened Def Con from 0.000904999 to 0.000905
Heightened Def Con from 0.000909999 to 0.00091
Heightened Def Con from 0.000919999 to 0.00092
Heightened Def Con from 0.000924999 to 0.000925
Heightened Def Con from 0.000929999 to 0.00093
Heightened Def Con from 0.000939999 to 0.00094
Heightened Def Con from 0.000944999 to 0.000945
Heightened Def Con from 0.000949999 to 0.00095
Heightened Def Con from 0.000959999 to 0.00096
Heightened Def Con from 0.000964999 to 0.000965
Heightened Def Con from 0.000969999 to 0.00097
Heightened Def Con from 0.000974999 to 0.000975
Heightened Def Con from 0.000984999 to 0.000985
Heightened Def Con from 0.000989999 to 0.00099
Heightened Def Con from 0.000994999 to 0.000995
Heightened Def Con from 0.000999999 to 0.001
Heightened Def Con from 0.001005 to 0.001005
Heightened Def Con from 0.00101 to 0.00101
Heightened Def Con from 0.001015 to 0.001015
Heightened Def Con from 0.00102 to 0.00102
Heightened Def Con from 0.001025 to 0.001025
Heightened Def Con from 0.00103 to 0.00103
Heightened Def Con from 0.001035 to 0.001035
Heightened Def Con from 0.00104 to 0.00104
Heightened Def Con from 0.001045 to 0.001045
Heightened Def Con from 0.001055 to 0.001055
Heightened Def Con from 0.00106 to 0.00106
Heightened Def Con from 0.001065 to 0.001065
Heightened Def Con from 0.00107 to 0.00107
Heightened Def Con from 0.00107289 to 0.00107289
Heightened Def Con from 0.001075 to 0.001075
Heightened Def Con from 0.00107789 to 0.00107789
Heightened Def Con from 0.00108 to 0.00108
Heightened Def Con from 0.00108289 to 0.00108289
Heightened Def Con from 0.001085 to 0.001085
Heightened Def Con from 0.00109 to 0.00109
Heightened Def Con from 0.001095 to 0.001095
Heightened Def Con from 0.0011 to 0.0011
Heightened Def Con from 0.001105 to 0.001105
Heightened Def Con from 0.00111 to 0.00111
Heightened Def Con from 0.001115 to 0.001115
Heightened Def Con from 0.00112 to 0.00112
Heightened Def Con from 0.001125 to 0.001125
Heightened Def Con from 0.00113 to 0.00113
Heightened Def Con from 0.00113289 to 0.00113289
Heightened Def Con from 0.001135 to 0.001135
Heightened Def Con from 0.00114 to 0.00114
Heightened Def Con from 0.00114289 to 0.00114289
Heightened Def Con from 0.001145 to 0.001145
Heightened Def Con from 0.00114789 to 0.00114789
Heightened Def Con from 0.00115 to 0.00115
Heightened Def Con from 0.001155 to 0.001155
Heightened Def Con from 0.001165 to 0.001165
Heightened Def Con from 0.00117 to 0.00117
Heightened Def Con from 0.001175 to 0.001175
Heightened Def Con from 0.00117789 to 0.00117789
Heightened Def Con from 0.00118 to 0.00118
Heightened Def Con from 0.001185 to 0.001185
Heightened Def Con from 0.00118789 to 0.00118789
Heightened Def Con from 0.00119 to 0.00119
Heightened Def Con from 0.001195 to 0.001195
Heightened Def Con from 0.0012 to 0.0012
Heightened Def Con from 0.00120289 to 0.00120289
Heightened Def Con from 0.001205 to 0.001205
Heightened Def Con from 0.00121 to 0.00121
Heightened Def Con from 0.001215 to 0.001215
Heightened Def Con from 0.00122 to 0.00122
Heightened Def Con from 0.001225 to 0.001225
Heightened Def Con from 0.00122789 to 0.00122789
Heightened Def Con from 0.00123 to 0.00123
Heightened Def Con from 0.001235 to 0.001235
Heightened Def Con from 0.00123789 to 0.00123789
Heightened Def Con from 0.00124 to 0.00124
Heightened Def Con from 0.001245 to 0.001245
Heightened Def Con from 0.00124789 to 0.00124789
Heightened Def Con from 0.00125 to 0.00125
Heightened Def Con from 0.001255 to 0.001255
Heightened Def Con from 0.00126 to 0.00126
Heightened Def Con from 0.00126289 to 0.00126289
Heightened Def Con from 0.001265 to 0.001265
Heightened Def Con from 0.00126789 to 0.00126789
Heightened Def Con from 0.00127 to 0.00127
Heightened Def Con from 0.001275 to 0.001275
Heightened Def Con from 0.00127789 to 0.00127789
Heightened Def Con from 0.00128 to 0.00128
Heightened Def Con from 0.001285 to 0.001285
Heightened Def Con from 0.00129 to 0.00129
Heightened Def Con from 0.00129289 to 0.00129289
Heightened Def Con from 0.001295 to 0.001295
Heightened Def Con from 0.0013 to 0.0013
Heightened Def Con from 0.001315 to 0.001315
Heightened Def Con from 0.00132 to 0.00132
Heightened Def Con from 0.00132289 to 0.00132289
Heightened Def Con from 0.001325 to 0.001325
Heightened Def Con from 0.00133 to 0.00133
Heightened Def Con from 0.001335 to 0.001335
Heightened Def Con from 0.00134 to 0.00134
Heightened Def Con from 0.001345 to 0.001345
Heightened Def Con from 0.00135 to 0.00135
Heightened Def Con from 0.00135289 to 0.00135289
Heightened Def Con from 0.001355 to 0.001355
Heightened Def Con from 0.00136 to 0.00136
Heightened Def Con from 0.001365 to 0.001365
Heightened Def Con from 0.00137 to 0.00137
Heightened Def Con from 0.001375 to 0.001375
Heightened Def Con from 0.00138 to 0.00138
Heightened Def Con from 0.001385 to 0.001385
Heightened Def Con from 0.00139 to 0.00139
Heightened Def Con from 0.001395 to 0.001395
Heightened Def Con from 0.0014 to 0.0014
Heightened Def Con from 0.001405 to 0.001405
Heightened Def Con from 0.00140789 to 0.00140789
Heightened Def Con from 0.00141289 to 0.00141289
Heightened Def Con from 0.001415 to 0.001415
Heightened Def Con from 0.00142 to 0.00142
Heightened Def Con from 0.00142289 to 0.00142289
Heightened Def Con from 0.001425 to 0.001425
Heightened Def Con from 0.00143 to 0.00143
Heightened Def Con from 0.001435 to 0.001435
Heightened Def Con from 0.00144 to 0.00144
Heightened Def Con from 0.001445 to 0.001445
Heightened Def Con from 0.00145 to 0.00145
Heightened Def Con from 0.001455 to 0.001455
Heightened Def Con from 0.00146 to 0.00146
Heightened Def Con from 0.001465 to 0.001465
Heightened Def Con from 0.00147 to 0.00147
Heightened Def Con from 0.001475 to 0.001475
Heightened Def Con from 0.00148 to 0.00148
Heightened Def Con from 0.001485 to 0.001485
Heightened Def Con from 0.00149 to 0.00149
Heightened Def Con from 0.00149289 to 0.00149289
Heightened Def Con from 0.001495 to 0.001495
Heightened Def Con from 0.0015 to 0.0015
Heightened Def Con from 0.00150289 to 0.00150289
Heightened Def Con from 0.001505 to 0.001505
Heightened Def Con from 0.00150789 to 0.00150789
Heightened Def Con from 0.00151 to 0.00151
Heightened Def Con from 0.00151289 to 0.00151289
Heightened Def Con from 0.001515 to 0.001515
Heightened Def Con from 0.001525 to 0.001525
Heightened Def Con from 0.00152789 to 0.00152789
Heightened Def Con from 0.00153 to 0.00153
Heightened Def Con from 0.001535 to 0.001535
Heightened Def Con from 0.00154 to 0.00154
Heightened Def Con from 0.001545 to 0.001545
Heightened Def Con from 0.00155 to 0.00155
Heightened Def Con from 0.00155289 to 0.00155289
Heightened Def Con from 0.001555 to 0.001555
Heightened Def Con from 0.00156 to 0.00156
Heightened Def Con from 0.001565 to 0.001565
Heightened Def Con from 0.00157 to 0.00157
Heightened Def Con from 0.001575 to 0.001575
Heightened Def Con from 0.001585 to 0.001585
Heightened Def Con from 0.00159 to 0.00159
Heightened Def Con from 0.001595 to 0.001595
Heightened Def Con from 0.0016 to 0.0016
Heightened Def Con from 0.001605 to 0.001605
Heightened Def Con from 0.00161 to 0.00161
Heightened Def Con from 0.001615 to 0.001615
Heightened Def Con from 0.00162 to 0.00162
Heightened Def Con from 0.00162289 to 0.00162289
Heightened Def Con from 0.001625 to 0.001625
Heightened Def Con from 0.00163 to 0.00163
Heightened Def Con from 0.001635 to 0.001635
Heightened Def Con from 0.00164 to 0.00164
Heightened Def Con from 0.001645 to 0.001645
Heightened Def Con from 0.00165 to 0.00165
Heightened Def Con from 0.001655 to 0.001655
Heightened Def Con from 0.00166 to 0.00166
Heightened Def Con from 0.001665 to 0.001665
Heightened Def Con from 0.00166789 to 0.00166789
Heightened Def Con from 0.00167 to 0.00167
Heightened Def Con from 0.001675 to 0.001675
Heightened Def Con from 0.00168 to 0.00168
Heightened Def Con from 0.001685 to 0.001685
Heightened Def Con from 0.00168789 to 0.00168789
Heightened Def Con from 0.00169 to 0.00169
Heightened Def Con from 0.001695 to 0.001695
Heightened Def Con from 0.0017 to 0.0017
Heightened Def Con from 0.001705 to 0.001705
Heightened Def Con from 0.00171 to 0.00171
Heightened Def Con from 0.001715 to 0.001715
Heightened Def Con from 0.00172 to 0.00172
Heightened Def Con from 0.001725 to 0.001725
Heightened Def Con from 0.00173 to 0.00173
Heightened Def Con from 0.00173289 to 0.00173289
Heightened Def Con from 0.00174 to 0.00174
Heightened Def Con from 0.001745 to 0.001745
Heightened Def Con from 0.00174789 to 0.00174789
Heightened Def Con from 0.00175 to 0.00175
Heightened Def Con from 0.001755 to 0.001755
Heightened Def Con from 0.00176 to 0.00176
Heightened Def Con from 0.001765 to 0.001765
Heightened Def Con from 0.00177 to 0.00177
Heightened Def Con from 0.00177289 to 0.00177289
Heightened Def Con from 0.001775 to 0.001775
Heightened Def Con from 0.00178 to 0.00178
Heightened Def Con from 0.00179 to 0.00179
Heightened Def Con from 0.001795 to 0.001795
Heightened Def Con from 0.0018 to 0.0018
Heightened Def Con from 0.001805 to 0.001805
Heightened Def Con from 0.00181 to 0.00181
Heightened Def Con from 0.001815 to 0.001815
Heightened Def Con from 0.00182 to 0.00182
Heightened Def Con from 0.001825 to 0.001825
Heightened Def Con from 0.00183 to 0.00183
Heightened Def Con from 0.00183289 to 0.00183289
Heightened Def Con from 0.00184 to 0.00184
Heightened Def Con from 0.001845 to 0.001845
Heightened Def Con from 0.00185 to 0.00185
Heightened Def Con from 0.001855 to 0.001855
Heightened Def Con from 0.00185789 to 0.00185789
Heightened Def Con from 0.00186 to 0.00186
Heightened Def Con from 0.001865 to 0.001865
Heightened Def Con from 0.00188 to 0.00188
Heightened Def Con from 0.001885 to 0.001885
Heightened Def Con from 0.00188789 to 0.00188789
Heightened Def Con from 0.00189 to 0.00189
Heightened Def Con from 0.00189289 to 0.00189289
Heightened Def Con from 0.001895 to 0.001895
Heightened Def Con from 0.0019 to 0.0019
Heightened Def Con from 0.001905 to 0.001905
Heightened Def Con from 0.00191 to 0.00191
Heightened Def Con from 0.001915 to 0.001915
Heightened Def Con from 0.001925 to 0.001925
Heightened Def Con from 0.00193 to 0.00193
Heightened Def Con from 0.001935 to 0.001935
Heightened Def Con from 0.00194 to 0.00194
Heightened Def Con from 0.00194289 to 0.00194289
Heightened Def Con from 0.001945 to 0.001945
Heightened Def Con from 0.00194789 to 0.00194789
Heightened Def Con from 0.00195 to 0.00195
Heightened Def Con from 0.001955 to 0.001955
Heightened Def Con from 0.001965 to 0.001965
Heightened Def Con from 0.00197 to 0.00197
Heightened Def Con from 0.001975 to 0.001975
Heightened Def Con from 0.00198 to 0.00198
Heightened Def Con from 0.00198289 to 0.00198289
Heightened Def Con from 0.001985 to 0.001985
Heightened Def Con from 0.00199 to 0.00199
Heightened Def Con from 0.001995 to 0.001995
Heightened Def Con from 0.002 to 0.002
Heightened Def Con from 0.00200289 to 0.00200289
Heightened Def Con from 0.002005 to 0.002005
Heightened Def Con from 0.00201 to 0.00201
Heightened Def Con from 0.002015 to 0.002015
Heightened Def Con from 0.00202 to 0.00202
Heightened Def Con from 0.002025 to 0.002025
Heightened Def Con from 0.00203 to 0.00203
Heightened Def Con from 0.002035 to 0.002035
Heightened Def Con from 0.002045 to 0.002045
Heightened Def Con from 0.00204789 to 0.00204789
Heightened Def Con from 0.00205 to 0.00205
Heightened Def Con from 0.002055 to 0.002055
Heightened Def Con from 0.00205789 to 0.00205789
Heightened Def Con from 0.00206 to 0.00206
Heightened Def Con from 0.00206789 to 0.00206789
Heightened Def Con from 0.00207 to 0.00207
Heightened Def Con from 0.002075 to 0.002075
Heightened Def Con from 0.00208 to 0.00208
Heightened Def Con from 0.002085 to 0.002085
Heightened Def Con from 0.002095 to 0.002095
Heightened Def Con from 0.0021 to 0.0021
Heightened Def Con from 0.002105 to 0.002105
Heightened Def Con from 0.00211 to 0.00211
Heightened Def Con from 0.002115 to 0.002115
Heightened Def Con from 0.00212 to 0.00212
Heightened Def Con from 0.002125 to 0.002125
Heightened Def Con from 0.00213 to 0.00213
Heightened Def Con from 0.002135 to 0.002135
Heightened Def Con from 0.00214 to 0.00214
Heightened Def Con from 0.002145 to 0.002145
Heightened Def Con from 0.00215 to 0.00215
Heightened Def Con from 0.00215289 to 0.00215289
Heightened Def Con from 0.002155 to 0.002155
Heightened Def Con from 0.00216 to 0.00216
Heightened Def Con from 0.002165 to 0.002165
Heightened Def Con from 0.00217 to 0.00217
Heightened Def Con from 0.002175 to 0.002175
Heightened Def Con from 0.00218 to 0.00218
Heightened Def Con from 0.002185 to 0.002185
Heightened Def Con from 0.002195 to 0.002195
Heightened Def Con from 0.0022 to 0.0022
Heightened Def Con from 0.00220289 to 0.00220289
Heightened Def Con from 0.002205 to 0.002205
Heightened Def Con from 0.00221 to 0.00221
Heightened Def Con from 0.00221289 to 0.00221289
Heightened Def Con from 0.002215 to 0.002215
Heightened Def Con from 0.00222 to 0.00222
Heightened Def Con from 0.00222289 to 0.00222289
Heightened Def Con from 0.002225 to 0.002225
Heightened Def Con from 0.00223 to 0.00223
Heightened Def Con from 0.00223289 to 0.00223289
Heightened Def Con from 0.002235 to 0.002235
Heightened Def Con from 0.00224 to 0.00224
Heightened Def Con from 0.002245 to 0.002245
Heightened Def Con from 0.00225 to 0.00225
Heightened Def Con from 0.002255 to 0.002255
Heightened Def Con from 0.002265 to 0.002265
Heightened Def Con from 0.00227 to 0.00227
Heightened Def Con from 0.002275 to 0.002275
Heightened Def Con from 0.00228 to 0.00228
Heightened Def Con from 0.002285 to 0.002285
Heightened Def Con from 0.00229 to 0.00229
Heightened Def Con from 0.00229789 to 0.00229789
Heightened Def Con from 0.0023 to 0.0023
Heightened Def Con from 0.00230289 to 0.00230289
Heightened Def Con from 0.002305 to 0.002305
Heightened Def Con from 0.00231 to 0.00231
Heightened Def Con from 0.002315 to 0.002315
Heightened Def Con from 0.00232 to 0.00232
Heightened Def Con from 0.002325 to 0.002325
Heightened Def Con from 0.00233 to 0.00233
Heightened Def Con from 0.002335 to 0.002335
Heightened Def Con from 0.00234 to 0.00234
Heightened Def Con from 0.002345 to 0.002345
Heightened Def Con from 0.00235 to 0.00235
Heightened Def Con from 0.00235289 to 0.00235289
Heightened Def Con from 0.002355 to 0.002355
Heightened Def Con from 0.00236 to 0.00236
Heightened Def Con from 0.002365 to 0.002365
Heightened Def Con from 0.00236789 to 0.00236789
Heightened Def Con from 0.00237 to 0.00237
Heightened Def Con from 0.002375 to 0.002375
Heightened Def Con from 0.00238 to 0.00238
Heightened Def Con from 0.002385 to 0.002385
Heightened Def Con from 0.00239 to 0.00239
Heightened Def Con from 0.002395 to 0.002395
Heightened Def Con from 0.0024 to 0.0024
Heightened Def Con from 0.002405 to 0.002405
Heightened Def Con from 0.00241 to 0.00241
Heightened Def Con from 0.00241289 to 0.00241289
Heightened Def Con from 0.002415 to 0.002415
Heightened Def Con from 0.00242 to 0.00242
Heightened Def Con from 0.002425 to 0.002425
Heightened Def Con from 0.00242789 to 0.00242789
Heightened Def Con from 0.002435 to 0.002435
Heightened Def Con from 0.00244 to 0.00244
Heightened Def Con from 0.00244289 to 0.00244289
Heightened Def Con from 0.002445 to 0.002445
Heightened Def Con from 0.00245 to 0.00245
Heightened Def Con from 0.002455 to 0.002455
Heightened Def Con from 0.00246 to 0.00246
Heightened Def Con from 0.002465 to 0.002465
Heightened Def Con from 0.00247 to 0.00247
Heightened Def Con from 0.00248 to 0.00248
Heightened Def Con from 0.00249 to 0.00249
Heightened Def Con from 0.002495 to 0.002495
Heightened Def Con from 0.0025 to 0.0025
Heightened Def Con from 0.002505 to 0.002505
Heightened Def Con from 0.00251 to 0.00251
Heightened Def Con from 0.002515 to 0.002515
Heightened Def Con from 0.00252 to 0.00252
Heightened Def Con from 0.002525 to 0.002525
Heightened Def Con from 0.00252789 to 0.00252789
Heightened Def Con from 0.002535 to 0.002535
Heightened Def Con from 0.00254 to 0.00254
Heightened Def Con from 0.00254289 to 0.00254289
Heightened Def Con from 0.002545 to 0.002545
Heightened Def Con from 0.00254789 to 0.00254789
Heightened Def Con from 0.00255 to 0.00255
Heightened Def Con from 0.002555 to 0.002555
Heightened Def Con from 0.00256 to 0.00256
Heightened Def Con from 0.002565 to 0.002565
Heightened Def Con from 0.00256789 to 0.00256789
Heightened Def Con from 0.00257 to 0.00257
Heightened Def Con from 0.002575 to 0.002575
Heightened Def Con from 0.00258 to 0.00258
Heightened Def Con from 0.00258289 to 0.00258289
Heightened Def Con from 0.002585 to 0.002585
Heightened Def Con from 0.00258789 to 0.00258789
Heightened Def Con from 0.00259 to 0.00259
Heightened Def Con from 0.002595 to 0.002595
Heightened Def Con from 0.0026 to 0.0026
Heightened Def Con from 0.002605 to 0.002605
Heightened Def Con from 0.00261 to 0.00261
Heightened Def Con from 0.00261289 to 0.00261289
Heightened Def Con from 0.002615 to 0.002615
Heightened Def Con from 0.00261789 to 0.00261789
Heightened Def Con from 0.00262 to 0.00262
Heightened Def Con from 0.00263 to 0.00263
Heightened Def Con from 0.002635 to 0.002635
Heightened Def Con from 0.00263789 to 0.00263789
Heightened Def Con from 0.00264 to 0.00264
Heightened Def Con from 0.002645 to 0.002645
Heightened Def Con from 0.00265 to 0.00265
Heightened Def Con from 0.00265289 to 0.00265289
Heightened Def Con from 0.002655 to 0.002655
Heightened Def Con from 0.00266 to 0.00266
Heightened Def Con from 0.002665 to 0.002665
Heightened Def Con from 0.00267 to 0.00267
Heightened Def Con from 0.002675 to 0.002675
Heightened Def Con from 0.00268 to 0.00268
Heightened Def Con from 0.002685 to 0.002685
Heightened Def Con from 0.00269 to 0.00269
Heightened Def Con from 0.002695 to 0.002695
Heightened Def Con from 0.0027 to 0.0027
Heightened Def Con from 0.002705 to 0.002705
Heightened Def Con from 0.00271 to 0.00271
Heightened Def Con from 0.00271789 to 0.00271789
Heightened Def Con from 0.002725 to 0.002725
Heightened Def Con from 0.00272789 to 0.00272789
Heightened Def Con from 0.00273 to 0.00273
Heightened Def Con from 0.002735 to 0.002735
Heightened Def Con from 0.00274 to 0.00274
Heightened Def Con from 0.002745 to 0.002745
Heightened Def Con from 0.00274789 to 0.00274789
Heightened Def Con from 0.00275 to 0.00275
Heightened Def Con from 0.002755 to 0.002755
Heightened Def Con from 0.00276 to 0.00276
Heightened Def Con from 0.002765 to 0.002765
Heightened Def Con from 0.00277 to 0.00277
Heightened Def Con from 0.002775 to 0.002775
Heightened Def Con from 0.00278 to 0.00278
Heightened Def Con from 0.00278289 to 0.00278289
Heightened Def Con from 0.002785 to 0.002785
Heightened Def Con from 0.00278789 to 0.00278789
Heightened Def Con from 0.00279 to 0.00279
Heightened Def Con from 0.00279289 to 0.00279289
Heightened Def Con from 0.002795 to 0.002795
Heightened Def Con from 0.00279789 to 0.00279789
Heightened Def Con from 0.0028 to 0.0028
Heightened Def Con from 0.002805 to 0.002805
Heightened Def Con from 0.00281 to 0.00281
Heightened Def Con from 0.002815 to 0.002815
Heightened Def Con from 0.00282 to 0.00282
Heightened Def Con from 0.002825 to 0.002825
Heightened Def Con from 0.00283 to 0.00283
Heightened Def Con from 0.002835 to 0.002835
Heightened Def Con from 0.00283789 to 0.00283789
Heightened Def Con from 0.00284 to 0.00284
Heightened Def Con from 0.002845 to 0.002845
Heightened Def Con from 0.00285 to 0.00285
Heightened Def Con from 0.002855 to 0.002855
Heightened Def Con from 0.00286 to 0.00286
Heightened Def Con from 0.00286289 to 0.00286289
Heightened Def Con from 0.002865 to 0.002865
Heightened Def Con from 0.00287 to 0.00287
Heightened Def Con from 0.002875 to 0.002875
Heightened Def Con from 0.00288 to 0.00288
Heightened Def Con from 0.002885 to 0.002885
Heightened Def Con from 0.00289 to 0.00289
Heightened Def Con from 0.002895 to 0.002895
Heightened Def Con from 0.0029 to 0.0029
Heightened Def Con from 0.002905 to 0.002905
Heightened Def Con from 0.00291 to 0.00291
Heightened Def Con from 0.002915 to 0.002915
Heightened Def Con from 0.00291789 to 0.00291789
Heightened Def Con from 0.00292 to 0.00292
Heightened Def Con from 0.002925 to 0.002925
Heightened Def Con from 0.00293 to 0.00293
Heightened Def Con from 0.002935 to 0.002935
Heightened Def Con from 0.00294 to 0.00294
Heightened Def Con from 0.002945 to 0.002945
Heightened Def Con from 0.00295 to 0.00295
Heightened Def Con from 0.002955 to 0.002955
Heightened Def Con from 0.00295789 to 0.00295789
Heightened Def Con from 0.00296 to 0.00296
Heightened Def Con from 0.002965 to 0.002965
Heightened Def Con from 0.00297 to 0.00297
Heightened Def Con from 0.00297289 to 0.00297289
Heightened Def Con from 0.002975 to 0.002975
Heightened Def Con from 0.00298 to 0.00298
Heightened Def Con from 0.002985 to 0.002985
Heightened Def Con from 0.00298789 to 0.00298789
Heightened Def Con from 0.00299 to 0.00299
Heightened Def Con from 0.002995 to 0.002995
Heightened Def Con from 0.003 to 0.003
Heightened Def Con from 0.003005 to 0.003005
Heightened Def Con from 0.00300789 to 0.00300789
Heightened Def Con from 0.00301 to 0.00301
Heightened Def Con from 0.003015 to 0.003015
Heightened Def Con from 0.00302 to 0.00302
Heightened Def Con from 0.003025 to 0.003025
Heightened Def Con from 0.003035 to 0.003035
Heightened Def Con from 0.00304 to 0.00304
Heightened Def Con from 0.003045 to 0.003045
Heightened Def Con from 0.00305 to 0.00305
Heightened Def Con from 0.003055 to 0.003055
Heightened Def Con from 0.00306 to 0.00306
Heightened Def Con from 0.003065 to 0.003065
Heightened Def Con from 0.00307 to 0.00307
Heightened Def Con from 0.003075 to 0.003075
Heightened Def Con from 0.00307789 to 0.00307789
Heightened Def Con from 0.00308 to 0.00308
Heightened Def Con from 0.003085 to 0.003085
Heightened Def Con from 0.00309 to 0.00309
Heightened Def Con from 0.003095 to 0.003095
Heightened Def Con from 0.0031 to 0.0031
Heightened Def Con from 0.003105 to 0.003105
Heightened Def Con from 0.00310789 to 0.00310789
Heightened Def Con from 0.00311 to 0.00311
Heightened Def Con from 0.003115 to 0.003115
Heightened Def Con from 0.00312 to 0.00312
Heightened Def Con from 0.003125 to 0.003125
Heightened Def Con from 0.00313 to 0.00313
Heightened Def Con from 0.003135 to 0.003135
Heightened Def Con from 0.00314 to 0.00314
Heightened Def Con from 0.00314789 to 0.00314789
Heightened Def Con from 0.00315 to 0.00315
Heightened Def Con from 0.003155 to 0.003155
Heightened Def Con from 0.00315789 to 0.00315789
Heightened Def Con from 0.00316 to 0.00316
Heightened Def Con from 0.003165 to 0.003165
Heightened Def Con from 0.00316789 to 0.00316789
Heightened Def Con from 0.00317 to 0.00317
Heightened Def Con from 0.00317289 to 0.00317289
Heightened Def Con from 0.003175 to 0.003175
Heightened Def Con from 0.00318 to 0.00318
Heightened Def Con from 0.003185 to 0.003185
Heightened Def Con from 0.00319 to 0.00319
Heightened Def Con from 0.003195 to 0.003195
Heightened Def Con from 0.00319789 to 0.00319789
Heightened Def Con from 0.0032 to 0.0032
Heightened Def Con from 0.003205 to 0.003205
Heightened Def Con from 0.00320789 to 0.00320789
Heightened Def Con from 0.00321 to 0.00321
Heightened Def Con from 0.003215 to 0.003215
Heightened Def Con from 0.00322 to 0.00322
Heightened Def Con from 0.00322289 to 0.00322289
Heightened Def Con from 0.003225 to 0.003225
Heightened Def Con from 0.003235 to 0.003235
Heightened Def Con from 0.00324 to 0.00324
Heightened Def Con from 0.003245 to 0.003245
Heightened Def Con from 0.003255 to 0.003255
Heightened Def Con from 0.00325789 to 0.00325789
Heightened Def Con from 0.00326 to 0.00326
Heightened Def Con from 0.003265 to 0.003265
Heightened Def Con from 0.00327 to 0.00327
Heightened Def Con from 0.003275 to 0.003275
Heightened Def Con from 0.00328 to 0.00328
Heightened Def Con from 0.003285 to 0.003285
Heightened Def Con from 0.00329 to 0.00329
Heightened Def Con from 0.00329789 to 0.00329789
Heightened Def Con from 0.0033 to 0.0033
Heightened Def Con from 0.003305 to 0.003305
Heightened Def Con from 0.003315 to 0.003315
Heightened Def Con from 0.00331789 to 0.00331789
Heightened Def Con from 0.003325 to 0.003325
Heightened Def Con from 0.00333 to 0.00333
Heightened Def Con from 0.00333289 to 0.00333289
Heightened Def Con from 0.003335 to 0.003335
Heightened Def Con from 0.00334 to 0.00334
Heightened Def Con from 0.003345 to 0.003345
Heightened Def Con from 0.00335 to 0.00335
Heightened Def Con from 0.003355 to 0.003355
Heightened Def Con from 0.00335789 to 0.00335789
Heightened Def Con from 0.00336 to 0.00336
Heightened Def Con from 0.003365 to 0.003365
Heightened Def Con from 0.00336789 to 0.00336789
Heightened Def Con from 0.00337 to 0.00337
Heightened Def Con from 0.003375 to 0.003375
Heightened Def Con from 0.00338 to 0.00338
Heightened Def Con from 0.003385 to 0.003385
Heightened Def Con from 0.00339 to 0.00339
Heightened Def Con from 0.003395 to 0.003395
Heightened Def Con from 0.0034 to 0.0034
Heightened Def Con from 0.00341 to 0.00341
Heightened Def Con from 0.003415 to 0.003415
Heightened Def Con from 0.003425 to 0.003425
Heightened Def Con from 0.00343 to 0.00343
Heightened Def Con from 0.003435 to 0.003435
Heightened Def Con from 0.00344 to 0.00344
Heightened Def Con from 0.003445 to 0.003445
Heightened Def Con from 0.00345 to 0.00345
Heightened Def Con from 0.00345289 to 0.00345289
Heightened Def Con from 0.00346 to 0.00346
Heightened Def Con from 0.003465 to 0.003465
Heightened Def Con from 0.00347 to 0.00347
Heightened Def Con from 0.00348 to 0.00348
Heightened Def Con from 0.003485 to 0.003485
Heightened Def Con from 0.00349 to 0.00349
Heightened Def Con from 0.003495 to 0.003495
Heightened Def Con from 0.0035 to 0.0035
Heightened Def Con from 0.003505 to 0.003505
Heightened Def Con from 0.00351 to 0.00351
Heightened Def Con from 0.003515 to 0.003515
Heightened Def Con from 0.00352 to 0.00352
Heightened Def Con from 0.003525 to 0.003525
Heightened Def Con from 0.00353 to 0.00353
Heightened Def Con from 0.003535 to 0.003535
Heightened Def Con from 0.00354 to 0.00354
Heightened Def Con from 0.003545 to 0.003545
Heightened Def Con from 0.00355289 to 0.00355289
Heightened Def Con from 0.003555 to 0.003555
Heightened Def Con from 0.00355789 to 0.00355789
Heightened Def Con from 0.00356 to 0.00356
Heightened Def Con from 0.00356289 to 0.00356289
Heightened Def Con from 0.003565 to 0.003565
Heightened Def Con from 0.00357 to 0.00357
Heightened Def Con from 0.003575 to 0.003575
Heightened Def Con from 0.00358 to 0.00358
Heightened Def Con from 0.003585 to 0.003585
Heightened Def Con from 0.00359289 to 0.00359289
Heightened Def Con from 0.003595 to 0.003595
Heightened Def Con from 0.0036 to 0.0036
Heightened Def Con from 0.00360289 to 0.00360289
Heightened Def Con from 0.003605 to 0.003605
Heightened Def Con from 0.00361 to 0.00361
Heightened Def Con from 0.00361289 to 0.00361289
Heightened Def Con from 0.003615 to 0.003615
Heightened Def Con from 0.00362 to 0.00362
Heightened Def Con from 0.003625 to 0.003625
Heightened Def Con from 0.00363 to 0.00363
Heightened Def Con from 0.00364 to 0.00364
Heightened Def Con from 0.00364289 to 0.00364289
Heightened Def Con from 0.003645 to 0.003645
Heightened Def Con from 0.00365 to 0.00365
Heightened Def Con from 0.003655 to 0.003655
Heightened Def Con from 0.00366 to 0.00366
Heightened Def Con from 0.003665 to 0.003665
Heightened Def Con from 0.00367 to 0.00367
Heightened Def Con from 0.003675 to 0.003675
Heightened Def Con from 0.00368 to 0.00368
Heightened Def Con from 0.003685 to 0.003685
Heightened Def Con from 0.00369 to 0.00369
Heightened Def Con from 0.003695 to 0.003695
Heightened Def Con from 0.0037 to 0.0037
Heightened Def Con from 0.003705 to 0.003705
Heightened Def Con from 0.00371 to 0.00371
Heightened Def Con from 0.003715 to 0.003715
Heightened Def Con from 0.00372 to 0.00372
Heightened Def Con from 0.003725 to 0.003725
Heightened Def Con from 0.003735 to 0.003735
Heightened Def Con from 0.00373789 to 0.00373789
Heightened Def Con from 0.00374 to 0.00374
Heightened Def Con from 0.00374289 to 0.00374289
Heightened Def Con from 0.003745 to 0.003745
Heightened Def Con from 0.00374789 to 0.00374789
Heightened Def Con from 0.00375 to 0.00375
Heightened Def Con from 0.00375789 to 0.00375789
Heightened Def Con from 0.00376 to 0.00376
Heightened Def Con from 0.003765 to 0.003765
Heightened Def Con from 0.00377 to 0.00377
Heightened Def Con from 0.00377289 to 0.00377289
Heightened Def Con from 0.003775 to 0.003775
Heightened Def Con from 0.00377789 to 0.00377789
Heightened Def Con from 0.00378 to 0.00378
Heightened Def Con from 0.003785 to 0.003785
Heightened Def Con from 0.00378789 to 0.00378789
Heightened Def Con from 0.00379 to 0.00379
Heightened Def Con from 0.003795 to 0.003795
Heightened Def Con from 0.0038 to 0.0038
Heightened Def Con from 0.00380289 to 0.00380289
Heightened Def Con from 0.003805 to 0.003805
Heightened Def Con from 0.00381 to 0.00381
Heightened Def Con from 0.00381289 to 0.00381289
Heightened Def Con from 0.003815 to 0.003815
Heightened Def Con from 0.00382 to 0.00382
Heightened Def Con from 0.003825 to 0.003825
Heightened Def Con from 0.003835 to 0.003835
Heightened Def Con from 0.00384 to 0.00384
Heightened Def Con from 0.003845 to 0.003845
Heightened Def Con from 0.00385 to 0.00385
Heightened Def Con from 0.003855 to 0.003855
Heightened Def Con from 0.00385789 to 0.00385789
Heightened Def Con from 0.00386 to 0.00386
Heightened Def Con from 0.003865 to 0.003865
Heightened Def Con from 0.00387 to 0.00387
Heightened Def Con from 0.003875 to 0.003875
Heightened Def Con from 0.00388 to 0.00388
Heightened Def Con from 0.00388289 to 0.00388289
Heightened Def Con from 0.003885 to 0.003885
Heightened Def Con from 0.00388789 to 0.00388789
Heightened Def Con from 0.00389 to 0.00389
Heightened Def Con from 0.003895 to 0.003895
Heightened Def Con from 0.0039 to 0.0039
Heightened Def Con from 0.003905 to 0.003905
Heightened Def Con from 0.00391 to 0.00391
Heightened Def Con from 0.003915 to 0.003915
Heightened Def Con from 0.00392 to 0.00392
Heightened Def Con from 0.003925 to 0.003925
Heightened Def Con from 0.00393 to 0.00393
Heightened Def Con from 0.00394 to 0.00394
Heightened Def Con from 0.003945 to 0.003945
Heightened Def Con from 0.00394789 to 0.00394789
Heightened Def Con from 0.00395 to 0.00395
Heightened Def Con from 0.00395289 to 0.00395289
Heightened Def Con from 0.003955 to 0.003955
Heightened Def Con from 0.00396289 to 0.00396289
Heightened Def Con from 0.003965 to 0.003965
Heightened Def Con from 0.003975 to 0.003975
Heightened Def Con from 0.00397789 to 0.00397789
Heightened Def Con from 0.00398 to 0.00398
Heightened Def Con from 0.003985 to 0.003985
Heightened Def Con from 0.00399 to 0.00399
Heightened Def Con from 0.003995 to 0.003995
Heightened Def Con from 0.004 to 0.004
Heightened Def Con from 0.004005 to 0.004005
Heightened Def Con from 0.00401 to 0.00401
Heightened Def Con from 0.004015 to 0.004015
Heightened Def Con from 0.00402 to 0.00402
Heightened Def Con from 0.004025 to 0.004025
Heightened Def Con from 0.00403 to 0.00403
Heightened Def Con from 0.004035 to 0.004035
Heightened Def Con from 0.00403789 to 0.00403789
Heightened Def Con from 0.00404 to 0.00404
Heightened Def Con from 0.00404289 to 0.00404289
Heightened Def Con from 0.004045 to 0.004045
Heightened Def Con from 0.00405 to 0.00405
Heightened Def Con from 0.004055 to 0.004055
Heightened Def Con from 0.00406 to 0.00406
Heightened Def Con from 0.004065 to 0.004065
Heightened Def Con from 0.00406789 to 0.00406789
Heightened Def Con from 0.00407 to 0.00407
Heightened Def Con from 0.004075 to 0.004075
Heightened Def Con from 0.00408 to 0.00408
Heightened Def Con from 0.004085 to 0.004085
Heightened Def Con from 0.00409 to 0.00409
Heightened Def Con from 0.004095 to 0.004095
Heightened Def Con from 0.0041 to 0.0041
Heightened Def Con from 0.004105 to 0.004105
Heightened Def Con from 0.00410789 to 0.00410789
Heightened Def Con from 0.00411 to 0.00411
Heightened Def Con from 0.004115 to 0.004115
Heightened Def Con from 0.00412 to 0.00412
Heightened Def Con from 0.004125 to 0.004125
Heightened Def Con from 0.00413 to 0.00413
Heightened Def Con from 0.00413289 to 0.00413289
Heightened Def Con from 0.004135 to 0.004135
Heightened Def Con from 0.00414 to 0.00414
Heightened Def Con from 0.004145 to 0.004145
Heightened Def Con from 0.00415 to 0.00415
Heightened Def Con from 0.004155 to 0.004155
Heightened Def Con from 0.004165 to 0.004165
Heightened Def Con from 0.00417 to 0.00417
Heightened Def Con from 0.004175 to 0.004175
Heightened Def Con from 0.00418 to 0.00418
Heightened Def Con from 0.004185 to 0.004185
Heightened Def Con from 0.00419 to 0.00419
Heightened Def Con from 0.004195 to 0.004195
Heightened Def Con from 0.0042 to 0.0042
Heightened Def Con from 0.004205 to 0.004205
Heightened Def Con from 0.00420789 to 0.00420789
Heightened Def Con from 0.00421 to 0.00421
Heightened Def Con from 0.004215 to 0.004215
Heightened Def Con from 0.00422 to 0.00422
Heightened Def Con from 0.004225 to 0.004225
Heightened Def Con from 0.00423 to 0.00423
Heightened Def Con from 0.00423289 to 0.00423289
Heightened Def Con from 0.004235 to 0.004235
Heightened Def Con from 0.00424 to 0.00424
Heightened Def Con from 0.00424289 to 0.00424289
Heightened Def Con from 0.004245 to 0.004245
Heightened Def Con from 0.00425 to 0.00425
Heightened Def Con from 0.00425289 to 0.00425289
Heightened Def Con from 0.004255 to 0.004255
Heightened Def Con from 0.00426 to 0.00426
Heightened Def Con from 0.004265 to 0.004265
Heightened Def Con from 0.00427 to 0.00427
Heightened Def Con from 0.004275 to 0.004275
Heightened Def Con from 0.00428 to 0.00428
Heightened Def Con from 0.004285 to 0.004285
Heightened Def Con from 0.00429 to 0.00429
Heightened Def Con from 0.004295 to 0.004295
Heightened Def Con from 0.0043 to 0.0043
Heightened Def Con from 0.00430289 to 0.00430289
Heightened Def Con from 0.004305 to 0.004305
Heightened Def Con from 0.00431 to 0.00431
Heightened Def Con from 0.004315 to 0.004315
Heightened Def Con from 0.00432 to 0.00432
Heightened Def Con from 0.004325 to 0.004325
Heightened Def Con from 0.00433 to 0.00433
Heightened Def Con from 0.00433289 to 0.00433289
Heightened Def Con from 0.004335 to 0.004335
Heightened Def Con from 0.00434 to 0.00434
Heightened Def Con from 0.00434289 to 0.00434289
Heightened Def Con from 0.00435 to 0.00435
Heightened Def Con from 0.004355 to 0.004355
Heightened Def Con from 0.00436 to 0.00436
Heightened Def Con from 0.004365 to 0.004365
Heightened Def Con from 0.00437 to 0.00437
Heightened Def Con from 0.004375 to 0.004375
Heightened Def Con from 0.00438 to 0.00438
Heightened Def Con from 0.004385 to 0.004385
Heightened Def Con from 0.00439 to 0.00439
Heightened Def Con from 0.004395 to 0.004395
Heightened Def Con from 0.00439789 to 0.00439789
Heightened Def Con from 0.0044 to 0.0044
Heightened Def Con from 0.004405 to 0.004405
Heightened Def Con from 0.00441 to 0.00441
Heightened Def Con from 0.004415 to 0.004415
Heightened Def Con from 0.00441789 to 0.00441789
Heightened Def Con from 0.00442 to 0.00442
Heightened Def Con from 0.004425 to 0.004425
Heightened Def Con from 0.00443 to 0.00443
Heightened Def Con from 0.00443289 to 0.00443289
Heightened Def Con from 0.004435 to 0.004435
Heightened Def Con from 0.00444 to 0.00444
Heightened Def Con from 0.00444289 to 0.00444289
Heightened Def Con from 0.00445 to 0.00445
Heightened Def Con from 0.004455 to 0.004455
Heightened Def Con from 0.00446 to 0.00446
Heightened Def Con from 0.00446289 to 0.00446289
Heightened Def Con from 0.004465 to 0.004465
Heightened Def Con from 0.00447 to 0.00447
Heightened Def Con from 0.004475 to 0.004475
Heightened Def Con from 0.00448 to 0.00448
Heightened Def Con from 0.00448289 to 0.00448289
Heightened Def Con from 0.004485 to 0.004485
Heightened Def Con from 0.00449 to 0.00449
Heightened Def Con from 0.00449289 to 0.00449289
Heightened Def Con from 0.004495 to 0.004495
Heightened Def Con from 0.004505 to 0.004505
Heightened Def Con from 0.00451 to 0.00451
Heightened Def Con from 0.004515 to 0.004515
Heightened Def Con from 0.00452 to 0.00452
Heightened Def Con from 0.00452289 to 0.00452289
Heightened Def Con from 0.004525 to 0.004525
Heightened Def Con from 0.00453 to 0.00453
Heightened Def Con from 0.004535 to 0.004535
Heightened Def Con from 0.00454 to 0.00454
Heightened Def Con from 0.004545 to 0.004545
Heightened Def Con from 0.00455 to 0.00455
Heightened Def Con from 0.00455289 to 0.00455289
Heightened Def Con from 0.004555 to 0.004555
Heightened Def Con from 0.00456 to 0.00456
Heightened Def Con from 0.004565 to 0.004565
Heightened Def Con from 0.00457 to 0.00457
Heightened Def Con from 0.004575 to 0.004575
Heightened Def Con from 0.00458 to 0.00458
Heightened Def Con from 0.00458289 to 0.00458289
Heightened Def Con from 0.004585 to 0.004585
Heightened Def Con from 0.004595 to 0.004595
Heightened Def Con from 0.00459789 to 0.00459789
Heightened Def Con from 0.0046 to 0.0046
Heightened Def Con from 0.004605 to 0.004605
Heightened Def Con from 0.004615 to 0.004615
Heightened Def Con from 0.00461789 to 0.00461789
Heightened Def Con from 0.00462 to 0.00462
Heightened Def Con from 0.004625 to 0.004625
Heightened Def Con from 0.00463 to 0.00463
Heightened Def Con from 0.004635 to 0.004635
Heightened Def Con from 0.00464 to 0.00464
Heightened Def Con from 0.004645 to 0.004645
Heightened Def Con from 0.00465 to 0.00465
Heightened Def Con from 0.00465289 to 0.00465289
Heightened Def Con from 0.004655 to 0.004655
Heightened Def Con from 0.00466 to 0.00466
Heightened Def Con from 0.00466289 to 0.00466289
Heightened Def Con from 0.004665 to 0.004665
Heightened Def Con from 0.00467 to 0.00467
Heightened Def Con from 0.00467289 to 0.00467289
Heightened Def Con from 0.004675 to 0.004675
Heightened Def Con from 0.00468 to 0.00468
Heightened Def Con from 0.004685 to 0.004685
Heightened Def Con from 0.00469 to 0.00469
Heightened Def Con from 0.004695 to 0.004695
Heightened Def Con from 0.0047 to 0.0047
Heightened Def Con from 0.004705 to 0.004705
Heightened Def Con from 0.00471 to 0.00471
Heightened Def Con from 0.004715 to 0.004715
Heightened Def Con from 0.00472 to 0.00472
Heightened Def Con from 0.00472289 to 0.00472289
Heightened Def Con from 0.004725 to 0.004725
Heightened Def Con from 0.00473 to 0.00473
Heightened Def Con from 0.004735 to 0.004735
Heightened Def Con from 0.00474 to 0.00474
Heightened Def Con from 0.004745 to 0.004745
Heightened Def Con from 0.00475 to 0.00475
Heightened Def Con from 0.00475289 to 0.00475289
Heightened Def Con from 0.004755 to 0.004755
Heightened Def Con from 0.00476 to 0.00476
Heightened Def Con from 0.004765 to 0.004765
Heightened Def Con from 0.00477 to 0.00477
Heightened Def Con from 0.004775 to 0.004775
Heightened Def Con from 0.00477789 to 0.00477789
Heightened Def Con from 0.00478 to 0.00478
Heightened Def Con from 0.004785 to 0.004785
Heightened Def Con from 0.004795 to 0.004795
Heightened Def Con from 0.0048 to 0.0048
Heightened Def Con from 0.004805 to 0.004805
Heightened Def Con from 0.00481 to 0.00481
Heightened Def Con from 0.004815 to 0.004815
Heightened Def Con from 0.00481789 to 0.00481789
Heightened Def Con from 0.00482 to 0.00482
Heightened Def Con from 0.004825 to 0.004825
Heightened Def Con from 0.00483 to 0.00483
Heightened Def Con from 0.004835 to 0.004835
Heightened Def Con from 0.00484 to 0.00484
Heightened Def Con from 0.004845 to 0.004845
Heightened Def Con from 0.004855 to 0.004855
Heightened Def Con from 0.00486 to 0.00486
Heightened Def Con from 0.004865 to 0.004865
Heightened Def Con from 0.00487 to 0.00487
Heightened Def Con from 0.004875 to 0.004875
Heightened Def Con from 0.00488 to 0.00488
Heightened Def Con from 0.004885 to 0.004885
Heightened Def Con from 0.00488789 to 0.00488789
Heightened Def Con from 0.00489 to 0.00489
Heightened Def Con from 0.004895 to 0.004895
Heightened Def Con from 0.0049 to 0.0049
Heightened Def Con from 0.004905 to 0.004905
Heightened Def Con from 0.00491 to 0.00491
Heightened Def Con from 0.004915 to 0.004915
Heightened Def Con from 0.00492 to 0.00492
Heightened Def Con from 0.00492289 to 0.00492289
Heightened Def Con from 0.004925 to 0.004925
Heightened Def Con from 0.00493 to 0.00493
Heightened Def Con from 0.004935 to 0.004935
Heightened Def Con from 0.00494 to 0.00494
Heightened Def Con from 0.004945 to 0.004945
Heightened Def Con from 0.00495 to 0.00495
Heightened Def Con from 0.004955 to 0.004955
Heightened Def Con from 0.00496 to 0.00496
Heightened Def Con from 0.004965 to 0.004965
Heightened Def Con from 0.00497 to 0.00497
Heightened Def Con from 0.004975 to 0.004975
Heightened Def Con from 0.00498 to 0.00498
Heightened Def Con from 0.004985 to 0.004985
Heightened Def Con from 0.00498789 to 0.00498789
Heightened Def Con from 0.00499 to 0.00499
Heightened Def Con from 0.00499289 to 0.00499289
Heightened Def Con from 0.004995 to 0.004995
Heightened Def Con from 0.005 to 0.005
Heightened Def Con from 0.005005 to 0.005005
Heightened Def Con from 0.00500789 to 0.00500789
Heightened Def Con from 0.00501 to 0.00501
Heightened Def Con from 0.00501789 to 0.00501789
Heightened Def Con from 0.00502 to 0.00502
Heightened Def Con from 0.005025 to 0.005025
Heightened Def Con from 0.00503 to 0.00503
Heightened Def Con from 0.005035 to 0.005035
Heightened Def Con from 0.00504 to 0.00504
Heightened Def Con from 0.005045 to 0.005045
Heightened Def Con from 0.00505 to 0.00505
Heightened Def Con from 0.005055 to 0.005055
Heightened Def Con from 0.00505789 to 0.00505789
Heightened Def Con from 0.00506 to 0.00506
Heightened Def Con from 0.00507 to 0.00507
Heightened Def Con from 0.00507289 to 0.00507289
Heightened Def Con from 0.00508 to 0.00508
Heightened Def Con from 0.005085 to 0.005085
Heightened Def Con from 0.00509 to 0.00509
Heightened Def Con from 0.005095 to 0.005095
Heightened Def Con from 0.00509789 to 0.00509789
Heightened Def Con from 0.0051 to 0.0051
Heightened Def Con from 0.005105 to 0.005105
Heightened Def Con from 0.00511 to 0.00511
Heightened Def Con from 0.00511289 to 0.00511289
Heightened Def Con from 0.005115 to 0.005115
Heightened Def Con from 0.00512 to 0.00512
Heightened Def Con from 0.005125 to 0.005125
Heightened Def Con from 0.00513 to 0.00513
Heightened Def Con from 0.005135 to 0.005135
Heightened Def Con from 0.00514 to 0.00514
Heightened Def Con from 0.00514289 to 0.00514289
Heightened Def Con from 0.005145 to 0.005145
Heightened Def Con from 0.00515 to 0.00515
Heightened Def Con from 0.005155 to 0.005155
Heightened Def Con from 0.00516 to 0.00516
Heightened Def Con from 0.005165 to 0.005165
Heightened Def Con from 0.00517 to 0.00517
Heightened Def Con from 0.005175 to 0.005175
Heightened Def Con from 0.00518 to 0.00518
Heightened Def Con from 0.005185 to 0.005185
Heightened Def Con from 0.00519 to 0.00519
Heightened Def Con from 0.005195 to 0.005195
Heightened Def Con from 0.00519789 to 0.00519789
Heightened Def Con from 0.0052 to 0.0052
Heightened Def Con from 0.005205 to 0.005205
Heightened Def Con from 0.00521 to 0.00521
Heightened Def Con from 0.005215 to 0.005215
Heightened Def Con from 0.00522 to 0.00522
Heightened Def Con from 0.005225 to 0.005225
Heightened Def Con from 0.00523 to 0.00523
Heightened Def Con from 0.00523289 to 0.00523289
Heightened Def Con from 0.005235 to 0.005235
Heightened Def Con from 0.00524 to 0.00524
Heightened Def Con from 0.005245 to 0.005245
Heightened Def Con from 0.00525 to 0.00525
Heightened Def Con from 0.005255 to 0.005255
Heightened Def Con from 0.00525789 to 0.00525789
Heightened Def Con from 0.005265 to 0.005265
Heightened Def Con from 0.00527 to 0.00527
Heightened Def Con from 0.005275 to 0.005275
Heightened Def Con from 0.00528 to 0.00528
Heightened Def Con from 0.005285 to 0.005285
Heightened Def Con from 0.00529 to 0.00529
Heightened Def Con from 0.005295 to 0.005295
Heightened Def Con from 0.0053 to 0.0053
Heightened Def Con from 0.00530289 to 0.00530289
Heightened Def Con from 0.005305 to 0.005305
Heightened Def Con from 0.00531 to 0.00531
Heightened Def Con from 0.005315 to 0.005315
Heightened Def Con from 0.00531789 to 0.00531789
Heightened Def Con from 0.00532 to 0.00532
Heightened Def Con from 0.005325 to 0.005325
Heightened Def Con from 0.00532789 to 0.00532789
Heightened Def Con from 0.00533 to 0.00533
Heightened Def Con from 0.005335 to 0.005335
Heightened Def Con from 0.00534 to 0.00534
Heightened Def Con from 0.005345 to 0.005345
Heightened Def Con from 0.00535 to 0.00535
Heightened Def Con from 0.005355 to 0.005355
Heightened Def Con from 0.00536 to 0.00536
Heightened Def Con from 0.005365 to 0.005365
Heightened Def Con from 0.005375 to 0.005375
Heightened Def Con from 0.00538 to 0.00538
Heightened Def Con from 0.005385 to 0.005385
Heightened Def Con from 0.00539 to 0.00539
Heightened Def Con from 0.005395 to 0.005395
Heightened Def Con from 0.0054 to 0.0054
Heightened Def Con from 0.005405 to 0.005405
Heightened Def Con from 0.00541 to 0.00541
Heightened Def Con from 0.00541289 to 0.00541289
Heightened Def Con from 0.005415 to 0.005415
Heightened Def Con from 0.00541789 to 0.00541789
Heightened Def Con from 0.00542 to 0.00542
Heightened Def Con from 0.005425 to 0.005425
Heightened Def Con from 0.00543 to 0.00543
Heightened Def Con from 0.005435 to 0.005435
Heightened Def Con from 0.00544 to 0.00544
Heightened Def Con from 0.00544289 to 0.00544289
Heightened Def Con from 0.005445 to 0.005445
Heightened Def Con from 0.00545 to 0.00545
Heightened Def Con from 0.00545289 to 0.00545289
Heightened Def Con from 0.005455 to 0.005455
Heightened Def Con from 0.00546 to 0.00546
Heightened Def Con from 0.005465 to 0.005465
Heightened Def Con from 0.00547 to 0.00547
Heightened Def Con from 0.005475 to 0.005475
Heightened Def Con from 0.00548 to 0.00548
Heightened Def Con from 0.00548289 to 0.00548289
Heightened Def Con from 0.005485 to 0.005485
Heightened Def Con from 0.00549 to 0.00549
Heightened Def Con from 0.005495 to 0.005495
Heightened Def Con from 0.0055 to 0.0055
Heightened Def Con from 0.005505 to 0.005505
Heightened Def Con from 0.00551 to 0.00551
Heightened Def Con from 0.005515 to 0.005515
Heightened Def Con from 0.00551789 to 0.00551789
Heightened Def Con from 0.00552 to 0.00552
Heightened Def Con from 0.005525 to 0.005525
Heightened Def Con from 0.00553 to 0.00553
Heightened Def Con from 0.005535 to 0.005535
Heightened Def Con from 0.00554 to 0.00554
Heightened Def Con from 0.005545 to 0.005545
Heightened Def Con from 0.00554789 to 0.00554789
Heightened Def Con from 0.00555 to 0.00555
Heightened Def Con from 0.005555 to 0.005555
Heightened Def Con from 0.00556 to 0.00556
Heightened Def Con from 0.00556289 to 0.00556289
Heightened Def Con from 0.005565 to 0.005565
Heightened Def Con from 0.005575 to 0.005575
Heightened Def Con from 0.00558 to 0.00558
Heightened Def Con from 0.005585 to 0.005585
Heightened Def Con from 0.00559 to 0.00559
Heightened Def Con from 0.005595 to 0.005595
Heightened Def Con from 0.00559789 to 0.00559789
Heightened Def Con from 0.0056 to 0.0056
Heightened Def Con from 0.005605 to 0.005605
Heightened Def Con from 0.00561 to 0.00561
Heightened Def Con from 0.00561289 to 0.00561289
Heightened Def Con from 0.005615 to 0.005615
Heightened Def Con from 0.00562 to 0.00562
Heightened Def Con from 0.005625 to 0.005625
Heightened Def Con from 0.005635 to 0.005635
Heightened Def Con from 0.00564 to 0.00564
Heightened Def Con from 0.00564289 to 0.00564289
Heightened Def Con from 0.005645 to 0.005645
Heightened Def Con from 0.00565 to 0.00565
Heightened Def Con from 0.005655 to 0.005655
Heightened Def Con from 0.00566 to 0.00566
Heightened Def Con from 0.00566289 to 0.00566289
Heightened Def Con from 0.005665 to 0.005665
Heightened Def Con from 0.00567 to 0.00567
Heightened Def Con from 0.005675 to 0.005675
Heightened Def Con from 0.00568 to 0.00568
Heightened Def Con from 0.005685 to 0.005685
Heightened Def Con from 0.00569 to 0.00569
Heightened Def Con from 0.005695 to 0.005695
Heightened Def Con from 0.0057 to 0.0057
Heightened Def Con from 0.005705 to 0.005705
Heightened Def Con from 0.00571 to 0.00571
Heightened Def Con from 0.005715 to 0.005715
Heightened Def Con from 0.00572 to 0.00572
Heightened Def Con from 0.00572289 to 0.00572289
Heightened Def Con from 0.005725 to 0.005725
Heightened Def Con from 0.00573 to 0.00573
Heightened Def Con from 0.005735 to 0.005735
Heightened Def Con from 0.005745 to 0.005745
Heightened Def Con from 0.00575 to 0.00575
Heightened Def Con from 0.00576 to 0.00576
Heightened Def Con from 0.005765 to 0.005765
Heightened Def Con from 0.00577 to 0.00577
Heightened Def Con from 0.005775 to 0.005775
Heightened Def Con from 0.00578 to 0.00578
Heightened Def Con from 0.00578289 to 0.00578289
Heightened Def Con from 0.005785 to 0.005785
Heightened Def Con from 0.00579 to 0.00579
Heightened Def Con from 0.005795 to 0.005795
Heightened Def Con from 0.0058 to 0.0058
Heightened Def Con from 0.005805 to 0.005805
Heightened Def Con from 0.00581 to 0.00581
Heightened Def Con from 0.00581789 to 0.00581789
Heightened Def Con from 0.00582 to 0.00582
Heightened Def Con from 0.005825 to 0.005825
Heightened Def Con from 0.00583 to 0.00583
Heightened Def Con from 0.005835 to 0.005835
Heightened Def Con from 0.00584 to 0.00584
Heightened Def Con from 0.005845 to 0.005845
Heightened Def Con from 0.00585 to 0.00585
Heightened Def Con from 0.00585289 to 0.00585289
Heightened Def Con from 0.005855 to 0.005855
Heightened Def Con from 0.00586 to 0.00586
Heightened Def Con from 0.005865 to 0.005865
Heightened Def Con from 0.00586789 to 0.00586789
Heightened Def Con from 0.00587 to 0.00587
Heightened Def Con from 0.005875 to 0.005875
Heightened Def Con from 0.00588 to 0.00588
Heightened Def Con from 0.005885 to 0.005885
Heightened Def Con from 0.00588789 to 0.00588789
Heightened Def Con from 0.00589 to 0.00589
Heightened Def Con from 0.005895 to 0.005895
Heightened Def Con from 0.005905 to 0.005905
Heightened Def Con from 0.00591 to 0.00591
Heightened Def Con from 0.005915 to 0.005915
Heightened Def Con from 0.00592 to 0.00592
Heightened Def Con from 0.005925 to 0.005925
Heightened Def Con from 0.00593 to 0.00593
Heightened Def Con from 0.005935 to 0.005935
Heightened Def Con from 0.00594 to 0.00594
Heightened Def Con from 0.005945 to 0.005945
Heightened Def Con from 0.00595 to 0.00595
Heightened Def Con from 0.005955 to 0.005955
Heightened Def Con from 0.00595789 to 0.00595789
Heightened Def Con from 0.00596 to 0.00596
Heightened Def Con from 0.00596289 to 0.00596289
Heightened Def Con from 0.005965 to 0.005965
Heightened Def Con from 0.00597 to 0.00597
Heightened Def Con from 0.005975 to 0.005975
Heightened Def Con from 0.00598 to 0.00598
Heightened Def Con from 0.005985 to 0.005985
Heightened Def Con from 0.00599 to 0.00599
Heightened Def Con from 0.005995 to 0.005995
Heightened Def Con from 0.006 to 0.006
Heightened Def Con from 0.00600289 to 0.00600289
Heightened Def Con from 0.006005 to 0.006005
Heightened Def Con from 0.00600789 to 0.00600789
Heightened Def Con from 0.00601 to 0.00601
Heightened Def Con from 0.00601289 to 0.00601289
Heightened Def Con from 0.006015 to 0.006015
Heightened Def Con from 0.00602 to 0.00602
Heightened Def Con from 0.006025 to 0.006025
Heightened Def Con from 0.00603 to 0.00603
Heightened Def Con from 0.006035 to 0.006035
Heightened Def Con from 0.00604 to 0.00604
Heightened Def Con from 0.006045 to 0.006045
Heightened Def Con from 0.00604789 to 0.00604789
Heightened Def Con from 0.00605 to 0.00605
Heightened Def Con from 0.006055 to 0.006055
Heightened Def Con from 0.00606 to 0.00606
Heightened Def Con from 0.006065 to 0.006065
Heightened Def Con from 0.00607 to 0.00607
Heightened Def Con from 0.006075 to 0.006075
Heightened Def Con from 0.006085 to 0.006085
Heightened Def Con from 0.00608789 to 0.00608789
Heightened Def Con from 0.00609 to 0.00609
Heightened Def Con from 0.00609289 to 0.00609289
Heightened Def Con from 0.006095 to 0.006095
Heightened Def Con from 0.0061 to 0.0061
Heightened Def Con from 0.006105 to 0.006105
Heightened Def Con from 0.00610789 to 0.00610789
Heightened Def Con from 0.00611 to 0.00611
Heightened Def Con from 0.006115 to 0.006115
Heightened Def Con from 0.00612 to 0.00612
Heightened Def Con from 0.00612289 to 0.00612289
Heightened Def Con from 0.006125 to 0.006125
Heightened Def Con from 0.00612789 to 0.00612789
Heightened Def Con from 0.00613 to 0.00613
Heightened Def Con from 0.00614 to 0.00614
Heightened Def Con from 0.006145 to 0.006145
Heightened Def Con from 0.00615 to 0.00615
Heightened Def Con from 0.006155 to 0.006155
Heightened Def Con from 0.00616 to 0.00616
Heightened Def Con from 0.006165 to 0.006165
Heightened Def Con from 0.00616789 to 0.00616789
Heightened Def Con from 0.00617 to 0.00617
Heightened Def Con from 0.006175 to 0.006175
Heightened Def Con from 0.00618 to 0.00618
Heightened Def Con from 0.006185 to 0.006185
Heightened Def Con from 0.006195 to 0.006195
Heightened Def Con from 0.00619789 to 0.00619789
Heightened Def Con from 0.0062 to 0.0062
Heightened Def Con from 0.006205 to 0.006205
Heightened Def Con from 0.00620789 to 0.00620789
Heightened Def Con from 0.00621 to 0.00621
Heightened Def Con from 0.006215 to 0.006215
Heightened Def Con from 0.00622 to 0.00622
Heightened Def Con from 0.006225 to 0.006225
Heightened Def Con from 0.00623 to 0.00623
Heightened Def Con from 0.006235 to 0.006235
Heightened Def Con from 0.00624 to 0.00624
Heightened Def Con from 0.00624289 to 0.00624289
Heightened Def Con from 0.00625 to 0.00625
Heightened Def Con from 0.006255 to 0.006255
Heightened Def Con from 0.00625789 to 0.00625789
Heightened Def Con from 0.00626 to 0.00626
Heightened Def Con from 0.006265 to 0.006265
Heightened Def Con from 0.00626789 to 0.00626789
Heightened Def Con from 0.00627 to 0.00627
Heightened Def Con from 0.006275 to 0.006275
Heightened Def Con from 0.00628 to 0.00628
Heightened Def Con from 0.006285 to 0.006285
Heightened Def Con from 0.00629 to 0.00629
Heightened Def Con from 0.006295 to 0.006295
Heightened Def Con from 0.00629789 to 0.00629789
Heightened Def Con from 0.0063 to 0.0063
Heightened Def Con from 0.006305 to 0.006305
Heightened Def Con from 0.00631 to 0.00631
Heightened Def Con from 0.006315 to 0.006315
Heightened Def Con from 0.00632 to 0.00632
Heightened Def Con from 0.006325 to 0.006325
Heightened Def Con from 0.00633 to 0.00633
Heightened Def Con from 0.006335 to 0.006335
Heightened Def Con from 0.00634 to 0.00634
Heightened Def Con from 0.006345 to 0.006345
Heightened Def Con from 0.00634789 to 0.00634789
Heightened Def Con from 0.00635 to 0.00635
Heightened Def Con from 0.00635289 to 0.00635289
Heightened Def Con from 0.006355 to 0.006355
Heightened Def Con from 0.00636 to 0.00636
Heightened Def Con from 0.006365 to 0.006365
Heightened Def Con from 0.00637 to 0.00637
Heightened Def Con from 0.006375 to 0.006375
Heightened Def Con from 0.00637789 to 0.00637789
Heightened Def Con from 0.00638 to 0.00638
Heightened Def Con from 0.006385 to 0.006385
Heightened Def Con from 0.00638789 to 0.00638789
Heightened Def Con from 0.00639 to 0.00639
Heightened Def Con from 0.006395 to 0.006395
Heightened Def Con from 0.0064 to 0.0064
Heightened Def Con from 0.006405 to 0.006405
Heightened Def Con from 0.00641 to 0.00641
Heightened Def Con from 0.006415 to 0.006415
Heightened Def Con from 0.00642 to 0.00642
Heightened Def Con from 0.006425 to 0.006425
Heightened Def Con from 0.00643 to 0.00643
Heightened Def Con from 0.00643289 to 0.00643289
Heightened Def Con from 0.006435 to 0.006435
Heightened Def Con from 0.00644 to 0.00644
Heightened Def Con from 0.006445 to 0.006445
Heightened Def Con from 0.00645 to 0.00645
Heightened Def Con from 0.006455 to 0.006455
Heightened Def Con from 0.00646 to 0.00646
Heightened Def Con from 0.006475 to 0.006475
Heightened Def Con from 0.00647789 to 0.00647789
Heightened Def Con from 0.00648 to 0.00648
Heightened Def Con from 0.00648289 to 0.00648289
Heightened Def Con from 0.006485 to 0.006485
Heightened Def Con from 0.00648789 to 0.00648789
Heightened Def Con from 0.00649 to 0.00649
Heightened Def Con from 0.006495 to 0.006495
Heightened Def Con from 0.0065 to 0.0065
Heightened Def Con from 0.006505 to 0.006505
Heightened Def Con from 0.00651 to 0.00651
Heightened Def Con from 0.006515 to 0.006515
Heightened Def Con from 0.00653 to 0.00653
Heightened Def Con from 0.00654 to 0.00654
Heightened Def Con from 0.006545 to 0.006545
Heightened Def Con from 0.00655 to 0.00655
Heightened Def Con from 0.00655289 to 0.00655289
Heightened Def Con from 0.006555 to 0.006555
Heightened Def Con from 0.00656 to 0.00656
Heightened Def Con from 0.006565 to 0.006565
Heightened Def Con from 0.00657 to 0.00657
Heightened Def Con from 0.006575 to 0.006575
Heightened Def Con from 0.00658 to 0.00658
Heightened Def Con from 0.006585 to 0.006585
Heightened Def Con from 0.00659 to 0.00659
Heightened Def Con from 0.00659289 to 0.00659289
Heightened Def Con from 0.006595 to 0.006595
Heightened Def Con from 0.00659789 to 0.00659789
Heightened Def Con from 0.0066 to 0.0066
Heightened Def Con from 0.006605 to 0.006605
Heightened Def Con from 0.00660789 to 0.00660789
Heightened Def Con from 0.00661 to 0.00661
Heightened Def Con from 0.006615 to 0.006615
Heightened Def Con from 0.00662 to 0.00662
Heightened Def Con from 0.00662289 to 0.00662289
Heightened Def Con from 0.006625 to 0.006625
Heightened Def Con from 0.00663 to 0.00663
Heightened Def Con from 0.006635 to 0.006635
Heightened Def Con from 0.00663789 to 0.00663789
Heightened Def Con from 0.00664 to 0.00664
Heightened Def Con from 0.006645 to 0.006645
Heightened Def Con from 0.00665 to 0.00665
Heightened Def Con from 0.006655 to 0.006655
Heightened Def Con from 0.00666 to 0.00666
Heightened Def Con from 0.00666289 to 0.00666289
Heightened Def Con from 0.006665 to 0.006665
Heightened Def Con from 0.00666789 to 0.00666789
Heightened Def Con from 0.00667 to 0.00667
Heightened Def Con from 0.006675 to 0.006675
Heightened Def Con from 0.00667789 to 0.00667789
Heightened Def Con from 0.00668 to 0.00668
Heightened Def Con from 0.006685 to 0.006685
Heightened Def Con from 0.00668789 to 0.00668789
Heightened Def Con from 0.00669 to 0.00669
Heightened Def Con from 0.006695 to 0.006695
Heightened Def Con from 0.0067 to 0.0067
Heightened Def Con from 0.006705 to 0.006705
Heightened Def Con from 0.00671 to 0.00671
Heightened Def Con from 0.006715 to 0.006715
Heightened Def Con from 0.00672 to 0.00672
Heightened Def Con from 0.006725 to 0.006725
Heightened Def Con from 0.00673 to 0.00673
Heightened Def Con from 0.006735 to 0.006735
Heightened Def Con from 0.00673789 to 0.00673789
Heightened Def Con from 0.00674 to 0.00674
Heightened Def Con from 0.006745 to 0.006745
Heightened Def Con from 0.00675 to 0.00675
Heightened Def Con from 0.006755 to 0.006755
Heightened Def Con from 0.00676 to 0.00676
Heightened Def Con from 0.006765 to 0.006765
Heightened Def Con from 0.00677 to 0.00677
Heightened Def Con from 0.006775 to 0.006775
Heightened Def Con from 0.00678 to 0.00678
Heightened Def Con from 0.006785 to 0.006785
Heightened Def Con from 0.00678789 to 0.00678789
Heightened Def Con from 0.00679 to 0.00679
Heightened Def Con from 0.006795 to 0.006795
Heightened Def Con from 0.00679789 to 0.00679789
Heightened Def Con from 0.0068 to 0.0068
Heightened Def Con from 0.00680289 to 0.00680289
Heightened Def Con from 0.006805 to 0.006805
Heightened Def Con from 0.00680789 to 0.00680789
Heightened Def Con from 0.00681 to 0.00681
Heightened Def Con from 0.00681789 to 0.00681789
Heightened Def Con from 0.00682 to 0.00682
Heightened Def Con from 0.00682289 to 0.00682289
Heightened Def Con from 0.006825 to 0.006825
Heightened Def Con from 0.00683 to 0.00683
Heightened Def Con from 0.006835 to 0.006835
Heightened Def Con from 0.00684 to 0.00684
Heightened Def Con from 0.006845 to 0.006845
Heightened Def Con from 0.00685 to 0.00685
Heightened Def Con from 0.006855 to 0.006855
Heightened Def Con from 0.00686 to 0.00686
Heightened Def Con from 0.006865 to 0.006865
Heightened Def Con from 0.00687 to 0.00687
Heightened Def Con from 0.006875 to 0.006875
Heightened Def Con from 0.00688 to 0.00688
Heightened Def Con from 0.006885 to 0.006885
Heightened Def Con from 0.00689 to 0.00689
Heightened Def Con from 0.00689289 to 0.00689289
Heightened Def Con from 0.006895 to 0.006895
Heightened Def Con from 0.0069 to 0.0069
Heightened Def Con from 0.006905 to 0.006905
Heightened Def Con from 0.00691 to 0.00691
Heightened Def Con from 0.006915 to 0.006915
Heightened Def Con from 0.00692 to 0.00692
Heightened Def Con from 0.006925 to 0.006925
Heightened Def Con from 0.00693 to 0.00693
Heightened Def Con from 0.006935 to 0.006935
Heightened Def Con from 0.00694 to 0.00694
Heightened Def Con from 0.00694289 to 0.00694289
Heightened Def Con from 0.006945 to 0.006945
Heightened Def Con from 0.00695 to 0.00695
Heightened Def Con from 0.006955 to 0.006955
Heightened Def Con from 0.00696 to 0.00696
Heightened Def Con from 0.006965 to 0.006965
Heightened Def Con from 0.00697 to 0.00697
Heightened Def Con from 0.006975 to 0.006975
Heightened Def Con from 0.00698 to 0.00698
Heightened Def Con from 0.006985 to 0.006985
Heightened Def Con from 0.00698789 to 0.00698789
Heightened Def Con from 0.00699 to 0.00699
Heightened Def Con from 0.006995 to 0.006995
Heightened Def Con from 0.00699789 to 0.00699789
Heightened Def Con from 0.007 to 0.007
Heightened Def Con from 0.00700289 to 0.00700289
Heightened Def Con from 0.007005 to 0.007005
Heightened Def Con from 0.00700789 to 0.00700789
Heightened Def Con from 0.00701 to 0.00701
Heightened Def Con from 0.007015 to 0.007015
Heightened Def Con from 0.00702 to 0.00702
Heightened Def Con from 0.00702289 to 0.00702289
Heightened Def Con from 0.00703 to 0.00703
Heightened Def Con from 0.007035 to 0.007035
Heightened Def Con from 0.00704 to 0.00704
Heightened Def Con from 0.007045 to 0.007045
Heightened Def Con from 0.00704789 to 0.00704789
Heightened Def Con from 0.00705 to 0.00705
Heightened Def Con from 0.00705289 to 0.00705289
Heightened Def Con from 0.007055 to 0.007055
Heightened Def Con from 0.00706 to 0.00706
Heightened Def Con from 0.007065 to 0.007065
Heightened Def Con from 0.00707 to 0.00707
Heightened Def Con from 0.007075 to 0.007075
Heightened Def Con from 0.00708 to 0.00708
Heightened Def Con from 0.007085 to 0.007085
Heightened Def Con from 0.00709 to 0.00709
Heightened Def Con from 0.007095 to 0.007095
Heightened Def Con from 0.0071 to 0.0071
Heightened Def Con from 0.007105 to 0.007105
Heightened Def Con from 0.00711 to 0.00711
Heightened Def Con from 0.00711289 to 0.00711289
Heightened Def Con from 0.007115 to 0.007115
Heightened Def Con from 0.00712 to 0.00712
Heightened Def Con from 0.00712289 to 0.00712289
Heightened Def Con from 0.007125 to 0.007125
Heightened Def Con from 0.00713 to 0.00713
Heightened Def Con from 0.007135 to 0.007135
Heightened Def Con from 0.00714 to 0.00714
Heightened Def Con from 0.00714289 to 0.00714289
Heightened Def Con from 0.007145 to 0.007145
Heightened Def Con from 0.00714789 to 0.00714789
Heightened Def Con from 0.00715 to 0.00715
Heightened Def Con from 0.007155 to 0.007155
Heightened Def Con from 0.00716 to 0.00716
Heightened Def Con from 0.007165 to 0.007165
Heightened Def Con from 0.00716789 to 0.00716789
Heightened Def Con from 0.00717 to 0.00717
Heightened Def Con from 0.007175 to 0.007175
Heightened Def Con from 0.00718 to 0.00718
Heightened Def Con from 0.007185 to 0.007185
Heightened Def Con from 0.00718789 to 0.00718789
Heightened Def Con from 0.00719 to 0.00719
Heightened Def Con from 0.007195 to 0.007195
Heightened Def Con from 0.0072 to 0.0072
Heightened Def Con from 0.007205 to 0.007205
Heightened Def Con from 0.00721 to 0.00721
Heightened Def Con from 0.007215 to 0.007215
Heightened Def Con from 0.007225 to 0.007225
Heightened Def Con from 0.00723 to 0.00723
Heightened Def Con from 0.007235 to 0.007235
Heightened Def Con from 0.00723789 to 0.00723789
Heightened Def Con from 0.00724 to 0.00724
Heightened Def Con from 0.007245 to 0.007245
Heightened Def Con from 0.00725 to 0.00725
Heightened Def Con from 0.007255 to 0.007255
Heightened Def Con from 0.00725789 to 0.00725789
Heightened Def Con from 0.00726 to 0.00726
Heightened Def Con from 0.007265 to 0.007265
Heightened Def Con from 0.00727 to 0.00727
Heightened Def Con from 0.00727289 to 0.00727289
Heightened Def Con from 0.007275 to 0.007275
Heightened Def Con from 0.00728 to 0.00728
Heightened Def Con from 0.007285 to 0.007285
Heightened Def Con from 0.00729 to 0.00729
Heightened Def Con from 0.007295 to 0.007295
Heightened Def Con from 0.0073 to 0.0073
Heightened Def Con from 0.007305 to 0.007305
Heightened Def Con from 0.00730789 to 0.00730789
Heightened Def Con from 0.00731 to 0.00731
Heightened Def Con from 0.007315 to 0.007315
Heightened Def Con from 0.00732 to 0.00732
Heightened Def Con from 0.007325 to 0.007325
Heightened Def Con from 0.00732789 to 0.00732789
Heightened Def Con from 0.00733 to 0.00733
Heightened Def Con from 0.007335 to 0.007335
Heightened Def Con from 0.00734 to 0.00734
Heightened Def Con from 0.00734289 to 0.00734289
Heightened Def Con from 0.007345 to 0.007345
Heightened Def Con from 0.00735 to 0.00735
Heightened Def Con from 0.007355 to 0.007355
Heightened Def Con from 0.00736 to 0.00736
Heightened Def Con from 0.00736289 to 0.00736289
Heightened Def Con from 0.007365 to 0.007365
Heightened Def Con from 0.00736789 to 0.00736789
Heightened Def Con from 0.00737 to 0.00737
Heightened Def Con from 0.00737289 to 0.00737289
Heightened Def Con from 0.007375 to 0.007375
Heightened Def Con from 0.00737789 to 0.00737789
Heightened Def Con from 0.00738 to 0.00738
Heightened Def Con from 0.00738289 to 0.00738289
Heightened Def Con from 0.007385 to 0.007385
Heightened Def Con from 0.00739 to 0.00739
Heightened Def Con from 0.007395 to 0.007395
Heightened Def Con from 0.007405 to 0.007405
Heightened Def Con from 0.00741 to 0.00741
Heightened Def Con from 0.00741289 to 0.00741289
Heightened Def Con from 0.007415 to 0.007415
Heightened Def Con from 0.00742 to 0.00742
Heightened Def Con from 0.00743 to 0.00743
Heightened Def Con from 0.007435 to 0.007435
Heightened Def Con from 0.00744 to 0.00744
Heightened Def Con from 0.007445 to 0.007445
Heightened Def Con from 0.00745289 to 0.00745289
Heightened Def Con from 0.007455 to 0.007455
Heightened Def Con from 0.00745789 to 0.00745789
Heightened Def Con from 0.00746 to 0.00746
Heightened Def Con from 0.007465 to 0.007465
Heightened Def Con from 0.00747 to 0.00747
Heightened Def Con from 0.007475 to 0.007475
Heightened Def Con from 0.00748 to 0.00748
Heightened Def Con from 0.007485 to 0.007485
Heightened Def Con from 0.00749 to 0.00749
Heightened Def Con from 0.007495 to 0.007495
Heightened Def Con from 0.0075 to 0.0075
Heightened Def Con from 0.00750289 to 0.00750289
Heightened Def Con from 0.007505 to 0.007505
Heightened Def Con from 0.00750789 to 0.00750789
Heightened Def Con from 0.00751 to 0.00751
Heightened Def Con from 0.00751289 to 0.00751289
Heightened Def Con from 0.007515 to 0.007515
Heightened Def Con from 0.00752 to 0.00752
Heightened Def Con from 0.00752289 to 0.00752289
Heightened Def Con from 0.007525 to 0.007525
Heightened Def Con from 0.00753 to 0.00753
Heightened Def Con from 0.00753289 to 0.00753289
Heightened Def Con from 0.007535 to 0.007535
Heightened Def Con from 0.00753789 to 0.00753789
Heightened Def Con from 0.00754 to 0.00754
Heightened Def Con from 0.007545 to 0.007545
Heightened Def Con from 0.00754789 to 0.00754789
Heightened Def Con from 0.00755 to 0.00755
Heightened Def Con from 0.007555 to 0.007555
Heightened Def Con from 0.00756 to 0.00756
Heightened Def Con from 0.007565 to 0.007565
Heightened Def Con from 0.00757 to 0.00757
Heightened Def Con from 0.007575 to 0.007575
Heightened Def Con from 0.00758 to 0.00758
Heightened Def Con from 0.00760789 to 0.00760789
Heightened Def Con from 0.00761289 to 0.00761289
Heightened Def Con from 0.00762289 to 0.00762289
Heightened Def Con from 0.00762789 to 0.00762789
Heightened Def Con from 0.00764289 to 0.00764289
Heightened Def Con from 0.00765789 to 0.00765789
Heightened Def Con from 0.00766289 to 0.00766289
Heightened Def Con from 0.00767789 to 0.00767789
Heightened Def Con from 0.00768289 to 0.00768289
Heightened Def Con from 0.007685 to 0.007685
Heightened Def Con from 0.00769289 to 0.00769289
Heightened Def Con from 0.007695 to 0.007695
Heightened Def Con from 0.00769789 to 0.00769789
Heightened Def Con from 0.0077 to 0.0077
Heightened Def Con from 0.00771 to 0.00771
Heightened Def Con from 0.00771289 to 0.00771289
Heightened Def Con from 0.007715 to 0.007715
Heightened Def Con from 0.00772 to 0.00772
Heightened Def Con from 0.00772289 to 0.00772289
Heightened Def Con from 0.007725 to 0.007725
Heightened Def Con from 0.00772789 to 0.00772789
Heightened Def Con from 0.00773 to 0.00773
Heightened Def Con from 0.007735 to 0.007735
Heightened Def Con from 0.00774 to 0.00774
Heightened Def Con from 0.007745 to 0.007745
Heightened Def Con from 0.00775 to 0.00775
Heightened Def Con from 0.00775289 to 0.00775289
Heightened Def Con from 0.007755 to 0.007755
Heightened Def Con from 0.00775789 to 0.00775789
Heightened Def Con from 0.00776 to 0.00776
Heightened Def Con from 0.007765 to 0.007765
Heightened Def Con from 0.00777 to 0.00777
Heightened Def Con from 0.00777289 to 0.00777289
Heightened Def Con from 0.007775 to 0.007775
Heightened Def Con from 0.00777789 to 0.00777789
Heightened Def Con from 0.00778 to 0.00778
Heightened Def Con from 0.007785 to 0.007785
Heightened Def Con from 0.00778789 to 0.00778789
Heightened Def Con from 0.00779 to 0.00779
Heightened Def Con from 0.007795 to 0.007795
Heightened Def Con from 0.0078 to 0.0078
Heightened Def Con from 0.007805 to 0.007805
Heightened Def Con from 0.00780789 to 0.00780789
Heightened Def Con from 0.007815 to 0.007815
Heightened Def Con from 0.00782 to 0.00782
Heightened Def Con from 0.007825 to 0.007825
Heightened Def Con from 0.00782789 to 0.00782789
Heightened Def Con from 0.00783 to 0.00783
Heightened Def Con from 0.007835 to 0.007835
Heightened Def Con from 0.00784 to 0.00784
Heightened Def Con from 0.007845 to 0.007845
Heightened Def Con from 0.00784789 to 0.00784789
Heightened Def Con from 0.00785 to 0.00785
Heightened Def Con from 0.007855 to 0.007855
Heightened Def Con from 0.00786 to 0.00786
Heightened Def Con from 0.007865 to 0.007865
Heightened Def Con from 0.00786789 to 0.00786789
Heightened Def Con from 0.00787 to 0.00787
Heightened Def Con from 0.00787289 to 0.00787289
Heightened Def Con from 0.007875 to 0.007875
Heightened Def Con from 0.00788 to 0.00788
Heightened Def Con from 0.00788289 to 0.00788289
Heightened Def Con from 0.007885 to 0.007885
Heightened Def Con from 0.00789 to 0.00789
[...]
Heightened Def Con from 0.00828 to 0.00828
Heightened Def Con from 0.008285 to 0.008285
Heightened Def Con from 0.00829289 to 0.00829289
Heightened Def Con from 0.008295 to 0.008295
Heightened Def Con from 0.0083 to 0.0083
Heightened Def Con from 0.008305 to 0.008305
Heightened Def Con from 0.00831 to 0.00831
Heightened Def Con from 0.008315 to 0.008315
Heightened Def Con from 0.00832 to 0.00832
Heightened Def Con from 0.008325 to 0.008325
Heightened Def Con from 0.00833 to 0.00833
Heightened Def Con from 0.00833289 to 0.00833289
Heightened Def Con from 0.008335 to 0.008335
Heightened Def Con from 0.00834 to 0.00834
Heightened Def Con from 0.008345 to 0.008345
Heightened Def Con from 0.00835 to 0.00835
Heightened Def Con from 0.008355 to 0.008355
Heightened Def Con from 0.008375 to 0.008375
Heightened Def Con from 0.00838 to 0.00838
Heightened Def Con from 0.008385 to 0.008385
Heightened Def Con from 0.00839 to 0.00839
Heightened Def Con from 0.008395 to 0.008395
Heightened Def Con from 0.0084 to 0.0084
Heightened Def Con from 0.008405 to 0.008405
Heightened Def Con from 0.00841 to 0.00841
Heightened Def Con from 0.00841289 to 0.00841289
Heightened Def Con from 0.008415 to 0.008415
Heightened Def Con from 0.00842 to 0.00842
Heightened Def Con from 0.00843 to 0.00843
Heightened Def Con from 0.00843289 to 0.00843289
Heightened Def Con from 0.008435 to 0.008435
Heightened Def Con from 0.00844 to 0.00844
Heightened Def Con from 0.008445 to 0.008445
Heightened Def Con from 0.00845 to 0.00845
Heightened Def Con from 0.008455 to 0.008455
Heightened Def Con from 0.00845789 to 0.00845789
Heightened Def Con from 0.00846 to 0.00846
Heightened Def Con from 0.00846789 to 0.00846789
Heightened Def Con from 0.00847 to 0.00847
Heightened Def Con from 0.008475 to 0.008475
Heightened Def Con from 0.00848 to 0.00848
Heightened Def Con from 0.008485 to 0.008485
Heightened Def Con from 0.00849 to 0.00849
Heightened Def Con from 0.008495 to 0.008495
Heightened Def Con from 0.00849789 to 0.00849789
Heightened Def Con from 0.008505 to 0.008505
Heightened Def Con from 0.00851 to 0.00851
Heightened Def Con from 0.008515 to 0.008515
Heightened Def Con from 0.00852 to 0.00852
Heightened Def Con from 0.00852289 to 0.00852289
Heightened Def Con from 0.008525 to 0.008525
Heightened Def Con from 0.00852789 to 0.00852789
Heightened Def Con from 0.00853 to 0.00853
Heightened Def Con from 0.008535 to 0.008535
Heightened Def Con from 0.00854 to 0.00854
Heightened Def Con from 0.008545 to 0.008545
Heightened Def Con from 0.00854789 to 0.00854789
Heightened Def Con from 0.00855 to 0.00855
Heightened Def Con from 0.008555 to 0.008555
Heightened Def Con from 0.00856 to 0.00856
Heightened Def Con from 0.008565 to 0.008565
Heightened Def Con from 0.00857 to 0.00857
Heightened Def Con from 0.008575 to 0.008575
Heightened Def Con from 0.00857789 to 0.00857789
Heightened Def Con from 0.00858 to 0.00858
Heightened Def Con from 0.008585 to 0.008585
Heightened Def Con from 0.00859 to 0.00859
Heightened Def Con from 0.008595 to 0.008595
Heightened Def Con from 0.0086 to 0.0086
Heightened Def Con from 0.008605 to 0.008605
Heightened Def Con from 0.00861 to 0.00861
Heightened Def Con from 0.008615 to 0.008615
Heightened Def Con from 0.008625 to 0.008625
Heightened Def Con from 0.00863 to 0.00863
Heightened Def Con from 0.008635 to 0.008635
Heightened Def Con from 0.00863789 to 0.00863789
Heightened Def Con from 0.00864 to 0.00864
Heightened Def Con from 0.008645 to 0.008645
Heightened Def Con from 0.00865 to 0.00865
Heightened Def Con from 0.008655 to 0.008655
Heightened Def Con from 0.00866 to 0.00866
Heightened Def Con from 0.008665 to 0.008665
Heightened Def Con from 0.00867 to 0.00867
Heightened Def Con from 0.00867289 to 0.00867289
Heightened Def Con from 0.008675 to 0.008675
Heightened Def Con from 0.00867789 to 0.00867789
Heightened Def Con from 0.00868 to 0.00868
Heightened Def Con from 0.008685 to 0.008685
Heightened Def Con from 0.00869 to 0.00869
Heightened Def Con from 0.00869289 to 0.00869289
Heightened Def Con from 0.008695 to 0.008695
Heightened Def Con from 0.0087 to 0.0087
Heightened Def Con from 0.00870289 to 0.00870289
Heightened Def Con from 0.008705 to 0.008705
Heightened Def Con from 0.00870789 to 0.00870789
Heightened Def Con from 0.00871 to 0.00871
Heightened Def Con from 0.00871289 to 0.00871289
Heightened Def Con from 0.008715 to 0.008715
Heightened Def Con from 0.00872 to 0.00872
Heightened Def Con from 0.008725 to 0.008725
Heightened Def Con from 0.00872789 to 0.00872789
Heightened Def Con from 0.00873 to 0.00873
Heightened Def Con from 0.008735 to 0.008735
Heightened Def Con from 0.00873789 to 0.00873789
Heightened Def Con from 0.00874 to 0.00874
Heightened Def Con from 0.00874289 to 0.00874289
Heightened Def Con from 0.008745 to 0.008745
Heightened Def Con from 0.00874789 to 0.00874789
Heightened Def Con from 0.00875 to 0.00875
Heightened Def Con from 0.00875289 to 0.00875289
Heightened Def Con from 0.008755 to 0.008755
Heightened Def Con from 0.00875789 to 0.00875789
Heightened Def Con from 0.00876 to 0.00876
Heightened Def Con from 0.00876289 to 0.00876289
Heightened Def Con from 0.008765 to 0.008765
Heightened Def Con from 0.00877 to 0.00877
Heightened Def Con from 0.008775 to 0.008775
Heightened Def Con from 0.00878 to 0.00878
Heightened Def Con from 0.00878289 to 0.00878289
Heightened Def Con from 0.008785 to 0.008785
Heightened Def Con from 0.00878789 to 0.00878789
Heightened Def Con from 0.00879 to 0.00879
Heightened Def Con from 0.008795 to 0.008795
Heightened Def Con from 0.00879789 to 0.00879789
Heightened Def Con from 0.0088 to 0.0088
Heightened Def Con from 0.008805 to 0.008805
Heightened Def Con from 0.00881 to 0.00881
Heightened Def Con from 0.008815 to 0.008815
Heightened Def Con from 0.00881789 to 0.00881789
Heightened Def Con from 0.00882 to 0.00882
Heightened Def Con from 0.008825 to 0.008825
Heightened Def Con from 0.00883 to 0.00883
Heightened Def Con from 0.00884289 to 0.00884289
Heightened Def Con from 0.00884789 to 0.00884789
Heightened Def Con from 0.00885289 to 0.00885289
Heightened Def Con from 0.00886289 to 0.00886289
Heightened Def Con from 0.00886789 to 0.00886789
Heightened Def Con from 0.00887789 to 0.00887789
Heightened Def Con from 0.00889289 to 0.00889289
Heightened Def Con from 0.00890789 to 0.00890789
Heightened Def Con from 0.00891289 to 0.00891289
Heightened Def Con from 0.00891789 to 0.00891789
Heightened Def Con from 0.00892289 to 0.00892289
Heightened Def Con from 0.00892789 to 0.00892789
Heightened Def Con from 0.00893289 to 0.00893289
Heightened Def Con from 0.008935 to 0.008935
Heightened Def Con from 0.00893789 to 0.00893789
Heightened Def Con from 0.00894 to 0.00894
Heightened Def Con from 0.00894289 to 0.00894289
Heightened Def Con from 0.008945 to 0.008945
Heightened Def Con from 0.00894789 to 0.00894789
Heightened Def Con from 0.00895 to 0.00895
Heightened Def Con from 0.008955 to 0.008955
Heightened Def Con from 0.00896 to 0.00896
Heightened Def Con from 0.00896289 to 0.00896289
Heightened Def Con from 0.008965 to 0.008965
Heightened Def Con from 0.00897 to 0.00897
Heightened Def Con from 0.00897289 to 0.00897289
Heightened Def Con from 0.008975 to 0.008975
Heightened Def Con from 0.00897789 to 0.00897789
Heightened Def Con from 0.00898 to 0.00898
Heightened Def Con from 0.008985 to 0.008985
Heightened Def Con from 0.00899 to 0.00899
Heightened Def Con from 0.008995 to 0.008995
Heightened Def Con from 0.009 to 0.009
Heightened Def Con from 0.00900289 to 0.00900289
Heightened Def Con from 0.009005 to 0.009005
Heightened Def Con from 0.00900789 to 0.00900789
Heightened Def Con from 0.00901 to 0.00901
Heightened Def Con from 0.009015 to 0.009015
Heightened Def Con from 0.00901789 to 0.00901789
Heightened Def Con from 0.00902 to 0.00902
Heightened Def Con from 0.009025 to 0.009025
Heightened Def Con from 0.00903 to 0.00903
Heightened Def Con from 0.00903289 to 0.00903289
Heightened Def Con from 0.009035 to 0.009035
Heightened Def Con from 0.00904 to 0.00904
Heightened Def Con from 0.00904289 to 0.00904289
Heightened Def Con from 0.009045 to 0.009045
Heightened Def Con from 0.00904789 to 0.00904789
Heightened Def Con from 0.00905 to 0.00905
Heightened Def Con from 0.00905289 to 0.00905289
Heightened Def Con from 0.009055 to 0.009055
Heightened Def Con from 0.00906 to 0.00906
Heightened Def Con from 0.00906289 to 0.00906289
Heightened Def Con from 0.009065 to 0.009065
Heightened Def Con from 0.00907 to 0.00907
Heightened Def Con from 0.00907289 to 0.00907289
Heightened Def Con from 0.009075 to 0.009075
Heightened Def Con from 0.00908 to 0.00908
Heightened Def Con from 0.009085 to 0.009085
Heightened Def Con from 0.00909 to 0.00909
Heightened Def Con from 0.00909289 to 0.00909289
Heightened Def Con from 0.009095 to 0.009095
Heightened Def Con from 0.00909789 to 0.00909789
Heightened Def Con from 0.0091 to 0.0091
Heightened Def Con from 0.00910289 to 0.00910289
Heightened Def Con from 0.009105 to 0.009105
Heightened Def Con from 0.00910789 to 0.00910789
Heightened Def Con from 0.00911 to 0.00911
Heightened Def Con from 0.009115 to 0.009115
Heightened Def Con from 0.00912 to 0.00912
Heightened Def Con from 0.00912289 to 0.00912289
Heightened Def Con from 0.009125 to 0.009125
Heightened Def Con from 0.00912789 to 0.00912789
Heightened Def Con from 0.00913 to 0.00913
Heightened Def Con from 0.009135 to 0.009135
Heightened Def Con from 0.00913789 to 0.00913789
Heightened Def Con from 0.00914 to 0.00914
Heightened Def Con from 0.00914289 to 0.00914289
Heightened Def Con from 0.009145 to 0.009145
Heightened Def Con from 0.00914789 to 0.00914789
Heightened Def Con from 0.00915 to 0.00915
Heightened Def Con from 0.00915289 to 0.00915289
Heightened Def Con from 0.009155 to 0.009155
Heightened Def Con from 0.00916 to 0.00916
Heightened Def Con from 0.00916289 to 0.00916289
Heightened Def Con from 0.009165 to 0.009165
Heightened Def Con from 0.00916789 to 0.00916789
Heightened Def Con from 0.00917 to 0.00917
Heightened Def Con from 0.00917289 to 0.00917289
Heightened Def Con from 0.009175 to 0.009175
Heightened Def Con from 0.00917789 to 0.00917789
Heightened Def Con from 0.00918 to 0.00918
Heightened Def Con from 0.009185 to 0.009185
Heightened Def Con from 0.00918789 to 0.00918789
Heightened Def Con from 0.00919 to 0.00919
Heightened Def Con from 0.00919289 to 0.00919289
Heightened Def Con from 0.0092 to 0.0092
Heightened Def Con from 0.00920289 to 0.00920289
Heightened Def Con from 0.009205 to 0.009205
Heightened Def Con from 0.00921 to 0.00921
Heightened Def Con from 0.00921289 to 0.00921289
Heightened Def Con from 0.009215 to 0.009215
Heightened Def Con from 0.00922 to 0.00922
Heightened Def Con from 0.009225 to 0.009225
Heightened Def Con from 0.00923 to 0.00923
Heightened Def Con from 0.009235 to 0.009235
Heightened Def Con from 0.00923789 to 0.00923789
Heightened Def Con from 0.00924 to 0.00924
Heightened Def Con from 0.00924289 to 0.00924289
Heightened Def Con from 0.009245 to 0.009245
Heightened Def Con from 0.00925 to 0.00925
Heightened Def Con from 0.00926 to 0.00926
Heightened Def Con from 0.009265 to 0.009265
Heightened Def Con from 0.00926789 to 0.00926789
Heightened Def Con from 0.00927 to 0.00927
Heightened Def Con from 0.00927289 to 0.00927289
Heightened Def Con from 0.009275 to 0.009275
Heightened Def Con from 0.00928 to 0.00928
Heightened Def Con from 0.00928789 to 0.00928789
Heightened Def Con from 0.00929 to 0.00929
Heightened Def Con from 0.009295 to 0.009295
Heightened Def Con from 0.00929789 to 0.00929789
Heightened Def Con from 0.0093 to 0.0093
Heightened Def Con from 0.009305 to 0.009305
Heightened Def Con from 0.00931 to 0.00931
Heightened Def Con from 0.00931289 to 0.00931289
Heightened Def Con from 0.009315 to 0.009315
Heightened Def Con from 0.00932 to 0.00932
Heightened Def Con from 0.009325 to 0.009325
Heightened Def Con from 0.00933 to 0.00933
Heightened Def Con from 0.009335 to 0.009335
Heightened Def Con from 0.00933789 to 0.00933789
Heightened Def Con from 0.00934 to 0.00934
Heightened Def Con from 0.00934289 to 0.00934289
Heightened Def Con from 0.009345 to 0.009345
Heightened Def Con from 0.00935 to 0.00935
Heightened Def Con from 0.009355 to 0.009355
Heightened Def Con from 0.00936 to 0.00936
Heightened Def Con from 0.009365 to 0.009365
Heightened Def Con from 0.00937 to 0.00937
Heightened Def Con from 0.009375 to 0.009375
Heightened Def Con from 0.00938 to 0.00938
Heightened Def Con from 0.00938289 to 0.00938289
Heightened Def Con from 0.009385 to 0.009385
Heightened Def Con from 0.00939 to 0.00939
Heightened Def Con from 0.00939289 to 0.00939289
Heightened Def Con from 0.009395 to 0.009395
Heightened Def Con from 0.00939789 to 0.00939789
Heightened Def Con from 0.0094 to 0.0094
Heightened Def Con from 0.009405 to 0.009405
Heightened Def Con from 0.00941 to 0.00941
Heightened Def Con from 0.009415 to 0.009415
Heightened Def Con from 0.00941789 to 0.00941789
Heightened Def Con from 0.00942 to 0.00942
Heightened Def Con from 0.009425 to 0.009425
Heightened Def Con from 0.00943 to 0.00943
Heightened Def Con from 0.009435 to 0.009435
Heightened Def Con from 0.00944 to 0.00944
Heightened Def Con from 0.00944289 to 0.00944289
Heightened Def Con from 0.009445 to 0.009445
Heightened Def Con from 0.00944789 to 0.00944789
Heightened Def Con from 0.009455 to 0.009455
Heightened Def Con from 0.00945789 to 0.00945789
Heightened Def Con from 0.00946 to 0.00946
Heightened Def Con from 0.009465 to 0.009465
Heightened Def Con from 0.00947 to 0.00947
Heightened Def Con from 0.00948 to 0.00948
Heightened Def Con from 0.009485 to 0.009485
Heightened Def Con from 0.00949 to 0.00949
Heightened Def Con from 0.00949289 to 0.00949289
Heightened Def Con from 0.009495 to 0.009495
Heightened Def Con from 0.0095 to 0.0095
Heightened Def Con from 0.009505 to 0.009505
Heightened Def Con from 0.00951 to 0.00951
Heightened Def Con from 0.009515 to 0.009515
Heightened Def Con from 0.00952 to 0.00952
Heightened Def Con from 0.009525 to 0.009525
Heightened Def Con from 0.00953 to 0.00953
Heightened Def Con from 0.009535 to 0.009535
Heightened Def Con from 0.00954 to 0.00954
Heightened Def Con from 0.009545 to 0.009545
Heightened Def Con from 0.00955 to 0.00955
Heightened Def Con from 0.009555 to 0.009555
Heightened Def Con from 0.00956 to 0.00956
Heightened Def Con from 0.009565 to 0.009565
Heightened Def Con from 0.00956789 to 0.00956789
Heightened Def Con from 0.00957 to 0.00957
Heightened Def Con from 0.00957289 to 0.00957289
Heightened Def Con from 0.009575 to 0.009575
Heightened Def Con from 0.00958 to 0.00958
Heightened Def Con from 0.009585 to 0.009585
Heightened Def Con from 0.00959 to 0.00959
Heightened Def Con from 0.009595 to 0.009595
Heightened Def Con from 0.0096 to 0.0096
Heightened Def Con from 0.009605 to 0.009605
Heightened Def Con from 0.00960789 to 0.00960789
Heightened Def Con from 0.00961 to 0.00961
Heightened Def Con from 0.009615 to 0.009615
Heightened Def Con from 0.00962 to 0.00962
Heightened Def Con from 0.009625 to 0.009625
Heightened Def Con from 0.00963 to 0.00963
Heightened Def Con from 0.009635 to 0.009635
Heightened Def Con from 0.00964 to 0.00964
Heightened Def Con from 0.009645 to 0.009645
Heightened Def Con from 0.00964789 to 0.00964789
Heightened Def Con from 0.00965 to 0.00965
Heightened Def Con from 0.009655 to 0.009655
Heightened Def Con from 0.00965789 to 0.00965789
Heightened Def Con from 0.00966 to 0.00966
Heightened Def Con from 0.009665 to 0.009665
Heightened Def Con from 0.00966789 to 0.00966789
Heightened Def Con from 0.00967 to 0.00967
Heightened Def Con from 0.009675 to 0.009675
Heightened Def Con from 0.00968 to 0.00968
Heightened Def Con from 0.009685 to 0.009685
Heightened Def Con from 0.00968789 to 0.00968789
Heightened Def Con from 0.00969 to 0.00969
Heightened Def Con from 0.009695 to 0.009695
Heightened Def Con from 0.0097 to 0.0097
Heightened Def Con from 0.009705 to 0.009705
Heightened Def Con from 0.00970789 to 0.00970789
Heightened Def Con from 0.00971 to 0.00971
Heightened Def Con from 0.00971289 to 0.00971289
Heightened Def Con from 0.009715 to 0.009715
Heightened Def Con from 0.00972 to 0.00972
Heightened Def Con from 0.009725 to 0.009725
Heightened Def Con from 0.00972789 to 0.00972789
Heightened Def Con from 0.00973 to 0.00973
Heightened Def Con from 0.009735 to 0.009735
Heightened Def Con from 0.009745 to 0.009745
Heightened Def Con from 0.00975 to 0.00975
Heightened Def Con from 0.00975289 to 0.00975289
Heightened Def Con from 0.009755 to 0.009755
Heightened Def Con from 0.00975789 to 0.00975789
Heightened Def Con from 0.00976 to 0.00976
Heightened Def Con from 0.009765 to 0.009765
Heightened Def Con from 0.00977 to 0.00977
Heightened Def Con from 0.00977289 to 0.00977289
Heightened Def Con from 0.00978 to 0.00978
Heightened Def Con from 0.009785 to 0.009785
Heightened Def Con from 0.00979 to 0.00979
Heightened Def Con from 0.009795 to 0.009795
Heightened Def Con from 0.0098 to 0.0098
Heightened Def Con from 0.009805 to 0.009805
Heightened Def Con from 0.00980789 to 0.00980789
Heightened Def Con from 0.00981 to 0.00981
Heightened Def Con from 0.009815 to 0.009815
Heightened Def Con from 0.00981789 to 0.00981789
Heightened Def Con from 0.00982 to 0.00982
Heightened Def Con from 0.00982289 to 0.00982289
Heightened Def Con from 0.009825 to 0.009825
Heightened Def Con from 0.00983 to 0.00983
Heightened Def Con from 0.009835 to 0.009835
Heightened Def Con from 0.00984 to 0.00984
Heightened Def Con from 0.009845 to 0.009845
Heightened Def Con from 0.00984789 to 0.00984789
Heightened Def Con from 0.00985 to 0.00985
Heightened Def Con from 0.00985289 to 0.00985289
Heightened Def Con from 0.009855 to 0.009855
Heightened Def Con from 0.00986 to 0.00986
Heightened Def Con from 0.009865 to 0.009865
Heightened Def Con from 0.00987 to 0.00987
Heightened Def Con from 0.009875 to 0.009875
Heightened Def Con from 0.00988 to 0.00988
Heightened Def Con from 0.009885 to 0.009885
Heightened Def Con from 0.00988789 to 0.00988789
Heightened Def Con from 0.00989 to 0.00989
Heightened Def Con from 0.009895 to 0.009895
Heightened Def Con from 0.0099 to 0.0099
Heightened Def Con from 0.00990289 to 0.00990289
Heightened Def Con from 0.009905 to 0.009905
Heightened Def Con from 0.00991 to 0.00991
Heightened Def Con from 0.009915 to 0.009915
Heightened Def Con from 0.00991789 to 0.00991789
Heightened Def Con from 0.00992 to 0.00992
Heightened Def Con from 0.009925 to 0.009925
Heightened Def Con from 0.00992789 to 0.00992789
Heightened Def Con from 0.00993 to 0.00993
Heightened Def Con from 0.00993289 to 0.00993289
Heightened Def Con from 0.009935 to 0.009935
Heightened Def Con from 0.00993789 to 0.00993789
Heightened Def Con from 0.00994 to 0.00994
Heightened Def Con from 0.00994289 to 0.00994289
Heightened Def Con from 0.009945 to 0.009945
Heightened Def Con from 0.00995 to 0.00995
Heightened Def Con from 0.009955 to 0.009955
Heightened Def Con from 0.00995789 to 0.00995789
Heightened Def Con from 0.00996 to 0.00996
Heightened Def Con from 0.00996289 to 0.00996289
Heightened Def Con from 0.009965 to 0.009965
Heightened Def Con from 0.00996789 to 0.00996789
Heightened Def Con from 0.00997 to 0.00997
Heightened Def Con from 0.00997289 to 0.00997289
Heightened Def Con from 0.009975 to 0.009975
Heightened Def Con from 0.00998 to 0.00998
Heightened Def Con from 0.009985 to 0.009985
Heightened Def Con from 0.00999 to 0.00999
Heightened Def Con from 0.00999289 to 0.00999289
Heightened Def Con from 0.009995 to 0.009995
Heightened Def Con from 0.00999789 to 0.00999789
Heightened Def Con from 0.01 to 0.01

Date: Mon Dec 04 20:07:40 2017
Total elapsed time: 47.567 seconds.

tnom = 27
temp = 27
method = modified trap
totiter = 5550358
traniter = 5550329
tranpoints = 1559894
accept = 1384377
rejected = 177798
matrix size = 31
fillins = 7
solver = Normal
Matrix Compiler1: 1.51 KB object code size  0.9/0.4/[0.3]
Matrix Compiler2: off  [0.5]/0.8/0.7

