Circuit: * C:\Users\morel\Documents\LTspiceXVII\lib\sym\Yannick\PI.asc

Fatal Error: No analysis request found.
